/*--------------------------------*- C++ -*----------------------------------*\
| =========                 |                                                 |
| \\      /  F ield         | OpenFOAM: The Open Source CFD Toolbox           |
|  \\    /   O peration     | Version:  v1912                                 |
|   \\  /    A nd           | Website:  www.openfoam.com                      |
|    \\/     M anipulation  |                                                 |
\*---------------------------------------------------------------------------*/
FoamFile
{
    version     2.0;
    format      ascii;
    class       featureEdgeMesh;
    location    "constant/triSurface";
    object      vane0.eMesh;
}
// * * * * * * * * * * * * * * * * * * * * * * * * * * * * * * * * * * * * * //


// points:

138
(
(1.3 -0.581188 -1)
(1.3 -0.581188 1)
(1.12049 -0.379248 1)
(1.1397 -0.381097 1)
(1.1397 -0.381097 -1)
(1.12049 -0.379248 -1)
(1.15866 -0.384702 1)
(1.15866 -0.384702 -1)
(1.17721 -0.390032 1)
(1.17721 -0.390032 -1)
(1.19519 -0.397043 1)
(1.19519 -0.397043 -1)
(1.21245 -0.405674 1)
(1.21245 -0.405674 -1)
(1.22885 -0.415854 1)
(1.22885 -0.415854 -1)
(1.24424 -0.427496 1)
(1.24424 -0.427496 -1)
(1.2585 -0.440501 1)
(1.2585 -0.440501 -1)
(1.2715 -0.454761 1)
(1.2715 -0.454761 -1)
(1.28315 -0.470154 1)
(1.28315 -0.470154 -1)
(1.29333 -0.486551 1)
(1.29333 -0.486551 -1)
(1.30196 -0.503813 1)
(1.30196 -0.503813 -1)
(1.30897 -0.521795 1)
(1.30897 -0.521795 -1)
(1.3143 -0.540344 1)
(1.3143 -0.540344 -1)
(1.3179 -0.559304 1)
(1.3179 -0.559304 -1)
(1.31975 -0.578515 1)
(1.31975 -0.578515 -1)
(1.29794 -0.560981 -1)
(1.29978 -0.579515 -1)
(1.29978 -0.579515 1)
(1.29794 -0.560981 1)
(1.29429 -0.542716 -1)
(1.29429 -0.542716 1)
(1.28887 -0.524896 -1)
(1.28887 -0.524896 1)
(1.28174 -0.507693 -1)
(1.28174 -0.507693 1)
(1.27295 -0.49127 -1)
(1.27295 -0.49127 1)
(1.2626 -0.475786 -1)
(1.2626 -0.475786 1)
(1.25078 -0.46139 -1)
(1.25078 -0.46139 1)
(1.23761 -0.44822 -1)
(1.23761 -0.44822 1)
(1.22321 -0.436402 -1)
(1.22321 -0.436402 1)
(1.20773 -0.426051 -1)
(1.20773 -0.426051 1)
(1.19131 -0.417265 -1)
(1.19131 -0.417265 1)
(1.1741 -0.410129 -1)
(1.1741 -0.410129 1)
(1.15628 -0.404711 -1)
(1.15628 -0.404711 1)
(1.13802 -0.401064 -1)
(1.13802 -0.401064 1)
(1.11948 -0.399223 -1)
(1.11948 -0.399223 1)
(1.3197 -0.580133 -1)
(1.11576 -0.380172 -1)
(1.11728 -0.379609 -1)
(1.31939 -0.581722 -1)
(1.31883 -0.58324 -1)
(1.31803 -0.584647 -1)
(1.11887 -0.379298 -1)
(1.31444 -0.587856 -1)
(1.31295 -0.588494 -1)
(1.31138 -0.588884 -1)
(1.30977 -0.589015 -1)
(1.30808 -0.588873 -1)
(1.31701 -0.585907 -1)
(1.3158 -0.586986 -1)
(1.30491 -0.587758 -1)
(1.30351 -0.586817 -1)
(1.30229 -0.585653 -1)
(1.30128 -0.584301 -1)
(1.30051 -0.582798 -1)
(1.30645 -0.588449 -1)
(1.11012 -0.387621 -1)
(1.11051 -0.38605 -1)
(1.11114 -0.384562 -1)
(1.11201 -0.383197 -1)
(1.11309 -0.381989 -1)
(1.11435 -0.380972 -1)
(1.10999 -0.389235 -1)
(1.11781 -0.398996 -1)
(1.1162 -0.398492 -1)
(1.1147 -0.397724 -1)
(1.11335 -0.396714 -1)
(1.11218 -0.395491 -1)
(1.11124 -0.39409 -1)
(1.11055 -0.392551 -1)
(1.11013 -0.390917 -1)
(1.11887 -0.379298 1)
(1.11728 -0.379609 1)
(1.31883 -0.58324 1)
(1.31939 -0.581722 1)
(1.30977 -0.589015 1)
(1.31138 -0.588884 1)
(1.3197 -0.580133 1)
(1.30808 -0.588873 1)
(1.11576 -0.380172 1)
(1.11435 -0.380972 1)
(1.11309 -0.381989 1)
(1.11201 -0.383197 1)
(1.11114 -0.384562 1)
(1.11051 -0.38605 1)
(1.11012 -0.387621 1)
(1.10999 -0.389235 1)
(1.11781 -0.398996 1)
(1.30051 -0.582798 1)
(1.31295 -0.588494 1)
(1.31444 -0.587856 1)
(1.3158 -0.586986 1)
(1.11055 -0.392551 1)
(1.11124 -0.39409 1)
(1.30491 -0.587758 1)
(1.30645 -0.588449 1)
(1.31701 -0.585907 1)
(1.31803 -0.584647 1)
(1.30128 -0.584301 1)
(1.30229 -0.585653 1)
(1.30351 -0.586817 1)
(1.1162 -0.398492 1)
(1.11013 -0.390917 1)
(1.11218 -0.395491 1)
(1.11335 -0.396714 1)
(1.1147 -0.397724 1)
)


// edges:

139
(
(2 3)
(4 5)
(3 6)
(7 4)
(6 8)
(9 7)
(8 10)
(11 9)
(10 12)
(13 11)
(12 14)
(15 13)
(14 16)
(17 15)
(16 18)
(19 17)
(18 20)
(21 19)
(20 22)
(23 21)
(22 24)
(25 23)
(24 26)
(27 25)
(26 28)
(29 27)
(28 30)
(31 29)
(30 32)
(33 31)
(32 34)
(35 33)
(36 37)
(38 39)
(40 36)
(39 41)
(42 40)
(41 43)
(44 42)
(43 45)
(46 44)
(45 47)
(48 46)
(47 49)
(50 48)
(49 51)
(52 50)
(51 53)
(54 52)
(53 55)
(56 54)
(55 57)
(58 56)
(57 59)
(60 58)
(59 61)
(62 60)
(61 63)
(64 62)
(63 65)
(66 64)
(65 67)
(35 68)
(69 70)
(68 71)
(71 72)
(72 73)
(70 74)
(74 5)
(75 76)
(76 77)
(77 78)
(78 79)
(73 80)
(80 81)
(81 75)
(82 83)
(83 84)
(84 85)
(85 86)
(79 87)
(87 82)
(0 37)
(86 0)
(88 89)
(89 90)
(90 91)
(91 92)
(92 93)
(93 69)
(94 88)
(66 95)
(95 96)
(96 97)
(97 98)
(98 99)
(99 100)
(100 101)
(101 102)
(102 94)
(103 104)
(2 103)
(105 106)
(107 108)
(106 109)
(109 34)
(110 107)
(104 111)
(111 112)
(112 113)
(113 114)
(114 115)
(115 116)
(116 117)
(117 118)
(119 67)
(1 120)
(108 121)
(121 122)
(122 123)
(124 125)
(38 1)
(126 127)
(127 110)
(123 128)
(128 129)
(129 105)
(120 130)
(130 131)
(132 126)
(131 132)
(133 119)
(118 134)
(134 124)
(125 135)
(135 136)
(137 133)
(136 137)
(1 0)
)

// * * * * * * * * * * * * * * * * * * * * * * * * * * * * * * * * * * * * * //


// ************************************************************************* //
