/*--------------------------------*- C++ -*----------------------------------*\
| =========                 |                                                 |
| \\      /  F ield         | OpenFOAM: The Open Source CFD Toolbox           |
|  \\    /   O peration     | Version:  v1912                                 |
|   \\  /    A nd           | Website:  www.openfoam.com                      |
|    \\/     M anipulation  |                                                 |
\*---------------------------------------------------------------------------*/
FoamFile
{
    version     2.0;
    format      ascii;
    class       featureEdgeMesh;
    location    "constant/triSurface";
    object      single_vaneu.eMesh;
}
// * * * * * * * * * * * * * * * * * * * * * * * * * * * * * * * * * * * * * //


// points:

76
(
(0.149558 0.29475 1)
(0.149558 0.29475 -1)
(0.123916 0.298263 1)
(0.123916 0.298263 -1)
(0.116206 0.302328 1)
(0.116206 0.302328 -1)
(0.103465 0.314126 1)
(0.103465 0.314126 -1)
(0.0988209 0.321501 1)
(0.0988209 0.321501 -1)
(0.093686 0.338089 1)
(0.093686 0.338089 -1)
(0.0945343 0.355434 1)
(0.0945343 0.355434 -1)
(0.101263 0.371442 1)
(0.101263 0.371442 -1)
(0.113062 0.384183 1)
(0.113062 0.384183 -1)
(4.92213 1.87284 1)
(4.92213 1.87284 -1)
(4.93906 1.86899 1)
(4.93906 1.86899 -1)
(4.95366 1.85958 1)
(4.95366 1.85958 -1)
(4.95951 1.85313 1)
(4.95951 1.85313 -1)
(4.96745 1.83768 1)
(4.96745 1.83768 -1)
(4.96929 1.82916 1)
(4.96929 1.82916 -1)
(4.96578 1.80352 1)
(4.96578 1.80352 -1)
(4.95637 1.78892 1)
(4.95637 1.78892 -1)
(0.158077 0.296592 1)
(0.158077 0.296592 -1)
(0.140849 0.294416 1)
(0.140849 0.294416 -1)
(0.132214 0.295599 1)
(0.132214 0.295599 -1)
(0.10932 0.30767 1)
(0.10932 0.30767 -1)
(0.0955278 0.329571 1)
(0.0955278 0.329571 -1)
(0.0933515 0.346799 1)
(0.0933515 0.346799 -1)
(0.0971986 0.363732 1)
(0.0971986 0.363732 -1)
(0.106605 0.378328 1)
(0.106605 0.378328 -1)
(0.120437 0.388827 1)
(0.120437 0.388827 -1)
(0.128506 0.39212 1)
(0.128506 0.39212 -1)
(4.9049 1.87066 1)
(4.9049 1.87066 -1)
(4.91342 1.8725 1)
(4.91342 1.8725 -1)
(4.93076 1.87165 1)
(4.93076 1.87165 -1)
(4.94677 1.86492 1)
(4.94677 1.86492 -1)
(4.96415 1.84575 1)
(4.96415 1.84575 -1)
(4.96962 1.82045 1)
(4.96962 1.82045 -1)
(4.96844 1.81182 1)
(4.96844 1.81182 -1)
(4.96171 1.79581 1)
(4.96171 1.79581 -1)
(4.94991 1.78307 1)
(4.94991 1.78307 -1)
(4.94254 1.77843 1)
(4.94254 1.77843 -1)
(4.93447 1.77513 1)
(4.93447 1.77513 -1)
)


// edges:

93
(
(34 0)
(0 1)
(1 35)
(0 36)
(37 1)
(36 38)
(39 37)
(38 2)
(2 3)
(3 39)
(2 4)
(4 5)
(5 3)
(4 40)
(41 5)
(40 6)
(6 7)
(7 41)
(6 8)
(8 9)
(9 7)
(8 42)
(43 9)
(42 10)
(10 11)
(11 43)
(10 44)
(45 11)
(44 12)
(12 13)
(13 45)
(12 46)
(47 13)
(46 14)
(14 15)
(15 47)
(14 48)
(49 15)
(48 16)
(16 17)
(17 49)
(16 50)
(51 17)
(50 52)
(53 51)
(52 54)
(55 53)
(54 56)
(57 55)
(56 18)
(18 19)
(19 57)
(18 58)
(59 19)
(58 20)
(20 21)
(21 59)
(20 60)
(61 21)
(60 22)
(22 23)
(23 61)
(22 24)
(24 25)
(25 23)
(24 62)
(63 25)
(62 26)
(26 27)
(27 63)
(26 28)
(28 29)
(29 27)
(28 64)
(65 29)
(64 66)
(67 65)
(66 30)
(30 31)
(31 67)
(30 68)
(69 31)
(68 32)
(32 33)
(33 69)
(32 70)
(71 33)
(70 72)
(73 71)
(72 74)
(75 73)
(74 34)
(35 75)
)

// * * * * * * * * * * * * * * * * * * * * * * * * * * * * * * * * * * * * * //


// ************************************************************************* //
