/*--------------------------------*- C++ -*----------------------------------*\
| =========                 |                                                 |
| \\      /  F ield         | OpenFOAM: The Open Source CFD Toolbox           |
|  \\    /   O peration     | Version:  v1912                                 |
|   \\  /    A nd           | Website:  www.openfoam.com                      |
|    \\/     M anipulation  |                                                 |
\*---------------------------------------------------------------------------*/
FoamFile
{
    version     2.0;
    format      ascii;
    class       featureEdgeMesh;
    location    "constant/triSurface";
    object      single_vane.eMesh;
}
// * * * * * * * * * * * * * * * * * * * * * * * * * * * * * * * * * * * * * //


// points:

76
(
(0.349581 -0.0590885 1)
(0.349581 -0.0590885 -1)
(0.33 -0.0519615 1)
(0.33 -0.0519615 -1)
(0.314037 -0.0385673 1)
(0.314037 -0.0385673 -1)
(0.308038 -0.03 1)
(0.308038 -0.03 -1)
(0.303618 -0.0205212 1)
(0.303618 -0.0205212 -1)
(0.3 7.34788e-18 1)
(0.3 7.34788e-18 -1)
(0.303618 0.0205212 1)
(0.303618 0.0205212 -1)
(0.308038 0.03 1)
(0.308038 0.03 -1)
(0.314037 0.0385673 1)
(0.314037 0.0385673 -1)
(0.33 0.0519615 1)
(0.33 0.0519615 -1)
(0.349581 0.0590885 1)
(0.349581 0.0590885 -1)
(10.3986 0.0459627 1)
(10.3986 0.0459627 -1)
(10.406 0.0385673 1)
(10.406 0.0385673 -1)
(10.412 0.03 1)
(10.412 0.03 -1)
(10.4191 0.0104189 1)
(10.4191 0.0104189 -1)
(10.4191 -0.0104189 1)
(10.4191 -0.0104189 -1)
(10.412 -0.03 1)
(10.412 -0.03 -1)
(10.406 -0.0385673 1)
(10.406 -0.0385673 -1)
(10.3986 -0.0459627 1)
(10.3986 -0.0459627 -1)
(0.36 -0.06 1)
(0.36 -0.06 -1)
(0.339479 -0.0563816 1)
(0.339479 -0.0563816 -1)
(0.321433 -0.0459627 1)
(0.321433 -0.0459627 -1)
(0.300912 -0.0104189 1)
(0.300912 -0.0104189 -1)
(0.300912 0.0104189 1)
(0.300912 0.0104189 -1)
(0.321433 0.0459627 1)
(0.321433 0.0459627 -1)
(0.339479 0.0563816 1)
(0.339479 0.0563816 -1)
(0.36 0.06 1)
(0.36 0.06 -1)
(10.36 0.06 1)
(10.36 0.06 -1)
(10.3704 0.0590885 1)
(10.3704 0.0590885 -1)
(10.3805 0.0563816 1)
(10.3805 0.0563816 -1)
(10.39 0.0519615 1)
(10.39 0.0519615 -1)
(10.4164 0.0205212 1)
(10.4164 0.0205212 -1)
(10.42 -1.46958e-17 1)
(10.42 -1.46958e-17 -1)
(10.4164 -0.0205212 1)
(10.4164 -0.0205212 -1)
(10.39 -0.0519615 1)
(10.39 -0.0519615 -1)
(10.3805 -0.0563816 1)
(10.3805 -0.0563816 -1)
(10.3704 -0.0590885 1)
(10.3704 -0.0590885 -1)
(10.36 -0.06 1)
(10.36 -0.06 -1)
)


// edges:

95
(
(38 0)
(0 1)
(1 39)
(0 40)
(41 1)
(40 2)
(2 3)
(3 41)
(2 42)
(43 3)
(42 4)
(4 5)
(5 43)
(4 6)
(6 7)
(7 5)
(6 8)
(8 9)
(9 7)
(8 44)
(45 9)
(44 10)
(10 11)
(11 45)
(10 46)
(47 11)
(46 12)
(12 13)
(13 47)
(12 14)
(14 15)
(15 13)
(14 16)
(16 17)
(17 15)
(16 48)
(49 17)
(48 18)
(18 19)
(19 49)
(18 50)
(51 19)
(50 20)
(20 21)
(21 51)
(20 52)
(53 21)
(52 54)
(55 53)
(54 56)
(57 55)
(56 58)
(59 57)
(58 60)
(61 59)
(60 22)
(22 23)
(23 61)
(22 24)
(24 25)
(25 23)
(24 26)
(26 27)
(27 25)
(26 62)
(63 27)
(62 28)
(28 29)
(29 63)
(28 64)
(65 29)
(64 30)
(30 31)
(31 65)
(30 66)
(67 31)
(66 32)
(32 33)
(33 67)
(32 34)
(34 35)
(35 33)
(34 36)
(36 37)
(37 35)
(36 68)
(69 37)
(68 70)
(71 69)
(70 72)
(73 71)
(72 74)
(75 73)
(74 38)
(39 75)
)

// * * * * * * * * * * * * * * * * * * * * * * * * * * * * * * * * * * * * * //


// ************************************************************************* //
