/*--------------------------------*- C++ -*----------------------------------*\
| =========                 |                                                 |
| \\      /  F ield         | OpenFOAM: The Open Source CFD Toolbox           |
|  \\    /   O peration     | Version:  v1912                                 |
|   \\  /    A nd           | Website:  www.openfoam.com                      |
|    \\/     M anipulation  |                                                 |
\*---------------------------------------------------------------------------*/
FoamFile
{
    version     2.0;
    format      ascii;
    class       featureEdgeMesh;
    location    "constant/triSurface";
    object      single_vane.eMesh;
}
// * * * * * * * * * * * * * * * * * * * * * * * * * * * * * * * * * * * * * //


// points:

76
(
(0.141318 -0.0492404 1)
(0.141318 -0.0492404 -1)
(0.117861 -0.0383022 1)
(0.117861 -0.0383022 -1)
(0.106699 -0.025 1)
(0.106699 -0.025 -1)
(0.10076 -0.00868241 1)
(0.10076 -0.00868241 -1)
(0.10076 0.00868241 1)
(0.10076 0.00868241 -1)
(0.106699 0.025 1)
(0.106699 0.025 -1)
(0.117861 0.0383022 1)
(0.117861 0.0383022 -1)
(0.141318 0.0492404 1)
(0.141318 0.0492404 -1)
(5.175 0.0433013 1)
(5.175 0.0433013 -1)
(5.1883 0.0321394 1)
(5.1883 0.0321394 -1)
(5.19698 0.017101 1)
(5.19698 0.017101 -1)
(5.19698 -0.017101 1)
(5.19698 -0.017101 -1)
(5.1883 -0.0321394 1)
(5.1883 -0.0321394 -1)
(5.175 -0.0433013 1)
(5.175 -0.0433013 -1)
(0.15 -0.05 1)
(0.15 -0.05 -1)
(0.132899 -0.0469846 1)
(0.132899 -0.0469846 -1)
(0.125 -0.0433013 1)
(0.125 -0.0433013 -1)
(0.111698 -0.0321394 1)
(0.111698 -0.0321394 -1)
(0.103015 -0.017101 1)
(0.103015 -0.017101 -1)
(0.1 6.12323e-18 1)
(0.1 6.12323e-18 -1)
(0.103015 0.017101 1)
(0.103015 0.017101 -1)
(0.111698 0.0321394 1)
(0.111698 0.0321394 -1)
(0.125 0.0433013 1)
(0.125 0.0433013 -1)
(0.132899 0.0469846 1)
(0.132899 0.0469846 -1)
(0.15 0.05 1)
(0.15 0.05 -1)
(5.15 0.05 1)
(5.15 0.05 -1)
(5.15868 0.0492404 1)
(5.15868 0.0492404 -1)
(5.1671 0.0469846 1)
(5.1671 0.0469846 -1)
(5.18214 0.0383022 1)
(5.18214 0.0383022 -1)
(5.1933 0.025 1)
(5.1933 0.025 -1)
(5.19924 0.00868241 1)
(5.19924 0.00868241 -1)
(5.2 -1.22465e-17 1)
(5.2 -1.22465e-17 -1)
(5.19924 -0.00868241 1)
(5.19924 -0.00868241 -1)
(5.1933 -0.025 1)
(5.1933 -0.025 -1)
(5.18214 -0.0383022 1)
(5.18214 -0.0383022 -1)
(5.1671 -0.0469846 1)
(5.1671 -0.0469846 -1)
(5.15868 -0.0492404 1)
(5.15868 -0.0492404 -1)
(5.15 -0.05 1)
(5.15 -0.05 -1)
)


// edges:

90
(
(28 0)
(0 1)
(1 29)
(0 30)
(31 1)
(30 32)
(33 31)
(32 2)
(2 3)
(3 33)
(2 34)
(35 3)
(34 4)
(4 5)
(5 35)
(4 36)
(37 5)
(36 6)
(6 7)
(7 37)
(6 38)
(39 7)
(38 8)
(8 9)
(9 39)
(8 40)
(41 9)
(40 10)
(10 11)
(11 41)
(10 42)
(43 11)
(42 12)
(12 13)
(13 43)
(12 44)
(45 13)
(44 46)
(47 45)
(46 14)
(14 15)
(15 47)
(14 48)
(49 15)
(48 50)
(51 49)
(50 52)
(53 51)
(52 54)
(55 53)
(54 16)
(16 17)
(17 55)
(16 56)
(57 17)
(56 18)
(18 19)
(19 57)
(18 58)
(59 19)
(58 20)
(20 21)
(21 59)
(20 60)
(61 21)
(60 62)
(63 61)
(62 64)
(65 63)
(64 22)
(22 23)
(23 65)
(22 66)
(67 23)
(66 24)
(24 25)
(25 67)
(24 68)
(69 25)
(68 26)
(26 27)
(27 69)
(26 70)
(71 27)
(70 72)
(73 71)
(72 74)
(75 73)
(74 28)
(29 75)
)

// * * * * * * * * * * * * * * * * * * * * * * * * * * * * * * * * * * * * * //


// ************************************************************************* //
