/*--------------------------------*- C++ -*----------------------------------*\
| =========                 |                                                 |
| \\      /  F ield         | OpenFOAM: The Open Source CFD Toolbox           |
|  \\    /   O peration     | Version:  v1912                                 |
|   \\  /    A nd           | Website:  www.openfoam.com                      |
|    \\/     M anipulation  |                                                 |
\*---------------------------------------------------------------------------*/
FoamFile
{
    version     2.0;
    format      ascii;
    class       featureEdgeMesh;
    location    "constant/triSurface";
    object      single_vanem.eMesh;
}
// * * * * * * * * * * * * * * * * * * * * * * * * * * * * * * * * * * * * * //


// points:

76
(
(0.169739 -0.0281908 1)
(0.169739 -0.0281908 -1)
(0.160716 -0.0229813 1)
(0.160716 -0.0229813 -1)
(0.154019 -0.015 1)
(0.154019 -0.015 -1)
(0.151809 -0.0102606 1)
(0.151809 -0.0102606 -1)
(0.15 3.67394e-18 1)
(0.15 3.67394e-18 -1)
(0.151809 0.0102606 1)
(0.151809 0.0102606 -1)
(0.154019 0.015 1)
(0.154019 0.015 -1)
(0.160716 0.0229813 1)
(0.160716 0.0229813 -1)
(0.169739 0.0281908 1)
(0.169739 0.0281908 -1)
(5.18521 0.0295442 1)
(5.18521 0.0295442 -1)
(5.195 0.0259808 1)
(5.195 0.0259808 -1)
(5.20298 0.0192836 1)
(5.20298 0.0192836 -1)
(5.20598 0.015 1)
(5.20598 0.015 -1)
(5.20819 0.0102606 1)
(5.20819 0.0102606 -1)
(5.21 -7.34788e-18 1)
(5.21 -7.34788e-18 -1)
(5.20819 -0.0102606 1)
(5.20819 -0.0102606 -1)
(5.20598 -0.015 1)
(5.20598 -0.015 -1)
(5.20298 -0.0192836 1)
(5.20298 -0.0192836 -1)
(5.195 -0.0259808 1)
(5.195 -0.0259808 -1)
(5.18521 -0.0295442 1)
(5.18521 -0.0295442 -1)
(0.18 -0.03 1)
(0.174791 -0.0295442 1)
(0.174791 -0.0295442 -1)
(0.18 -0.03 -1)
(0.165 -0.0259808 1)
(0.165 -0.0259808 -1)
(0.157019 -0.0192836 1)
(0.157019 -0.0192836 -1)
(0.150456 -0.00520945 1)
(0.150456 -0.00520945 -1)
(0.150456 0.00520945 1)
(0.150456 0.00520945 -1)
(0.157019 0.0192836 1)
(0.157019 0.0192836 -1)
(0.165 0.0259808 1)
(0.165 0.0259808 -1)
(0.174791 0.0295442 1)
(0.174791 0.0295442 -1)
(0.18 0.03 1)
(0.18 0.03 -1)
(5.18 0.03 1)
(5.18 0.03 -1)
(5.19026 0.0281908 1)
(5.19026 0.0281908 -1)
(5.19928 0.0229813 1)
(5.19928 0.0229813 -1)
(5.20954 0.00520945 1)
(5.20954 0.00520945 -1)
(5.20954 -0.00520945 1)
(5.20954 -0.00520945 -1)
(5.19928 -0.0229813 1)
(5.19928 -0.0229813 -1)
(5.19026 -0.0281908 1)
(5.19026 -0.0281908 -1)
(5.18 -0.03 1)
(5.18 -0.03 -1)
)


// edges:

96
(
(40 41)
(42 43)
(41 0)
(0 1)
(1 42)
(0 44)
(45 1)
(44 2)
(2 3)
(3 45)
(2 46)
(47 3)
(46 4)
(4 5)
(5 47)
(4 6)
(6 7)
(7 5)
(6 48)
(49 7)
(48 8)
(8 9)
(9 49)
(8 50)
(51 9)
(50 10)
(10 11)
(11 51)
(10 12)
(12 13)
(13 11)
(12 52)
(53 13)
(52 14)
(14 15)
(15 53)
(14 54)
(55 15)
(54 16)
(16 17)
(17 55)
(16 56)
(57 17)
(56 58)
(59 57)
(58 60)
(61 59)
(60 18)
(18 19)
(19 61)
(18 62)
(63 19)
(62 20)
(20 21)
(21 63)
(20 64)
(65 21)
(64 22)
(22 23)
(23 65)
(22 24)
(24 25)
(25 23)
(24 26)
(26 27)
(27 25)
(26 66)
(67 27)
(66 28)
(28 29)
(29 67)
(28 68)
(69 29)
(68 30)
(30 31)
(31 69)
(30 32)
(32 33)
(33 31)
(32 34)
(34 35)
(35 33)
(34 70)
(71 35)
(70 36)
(36 37)
(37 71)
(36 72)
(73 37)
(72 38)
(38 39)
(39 73)
(38 74)
(75 39)
(74 40)
(43 75)
)

// * * * * * * * * * * * * * * * * * * * * * * * * * * * * * * * * * * * * * //


// ************************************************************************* //
