/*--------------------------------*- C++ -*----------------------------------*\
| =========                 |                                                 |
| \\      /  F ield         | OpenFOAM: The Open Source CFD Toolbox           |
|  \\    /   O peration     | Version:  v1912                                 |
|   \\  /    A nd           | Website:  www.openfoam.com                      |
|    \\/     M anipulation  |                                                 |
\*---------------------------------------------------------------------------*/
FoamFile
{
    version     2.0;
    format      ascii;
    class       featureEdgeMesh;
    location    "constant/triSurface";
    object      single_vaneu.eMesh;
}
// * * * * * * * * * * * * * * * * * * * * * * * * * * * * * * * * * * * * * //


// points:

76
(
(0.170484 0.323263 1)
(0.170484 0.323263 -1)
(0.160324 0.325572 1)
(0.160324 0.325572 -1)
(0.148054 0.335089 1)
(0.148054 0.335089 -1)
(0.143292 0.344356 1)
(0.143292 0.344356 -1)
(0.142695 0.359874 1)
(0.142695 0.359874 -1)
(0.146733 0.369479 1)
(0.146733 0.369479 -1)
(0.149938 0.373611 1)
(0.149938 0.373611 -1)
(4.95499 1.86102 1)
(4.95499 1.86102 -1)
(4.97224 1.84991 1)
(4.97224 1.84991 -1)
(4.977 1.84064 1)
(4.977 1.84064 -1)
(4.97831 1.8303 1)
(4.97831 1.8303 -1)
(4.9776 1.82512 1)
(4.9776 1.82512 -1)
(4.976 1.82014 1)
(4.976 1.82014 -1)
(4.97035 1.81138 1)
(4.97035 1.81138 -1)
(4.96648 1.80787 1)
(4.96648 1.80787 -1)
(0.180821 0.324569 1)
(0.175711 0.323464 1)
(0.175711 0.323464 -1)
(0.180821 0.324569 -1)
(0.165304 0.323973 1)
(0.165304 0.323973 -1)
(0.155699 0.328011 1)
(0.155699 0.328011 -1)
(0.151567 0.331216 1)
(0.151567 0.331216 -1)
(0.145268 0.339515 1)
(0.145268 0.339515 -1)
(0.142187 0.349468 1)
(0.142187 0.349468 -1)
(0.141986 0.354693 1)
(0.141986 0.354693 -1)
(0.144295 0.364853 1)
(0.144295 0.364853 -1)
(0.153812 0.377123 1)
(0.153812 0.377123 -1)
(0.158238 0.37991 1)
(0.158238 0.37991 -1)
(0.163079 0.381886 1)
(0.163079 0.381886 -1)
(4.93947 1.86043 1)
(4.93947 1.86043 -1)
(4.94458 1.86153 1)
(4.94458 1.86153 -1)
(4.94981 1.86173 1)
(4.94981 1.86173 -1)
(4.95996 1.85942 1)
(4.95996 1.85942 -1)
(4.96459 1.85698 1)
(4.96459 1.85698 -1)
(4.96872 1.85378 1)
(4.96872 1.85378 -1)
(4.97502 1.84548 1)
(4.97502 1.84548 -1)
(4.9781 1.83553 1)
(4.9781 1.83553 -1)
(4.97356 1.81552 1)
(4.97356 1.81552 -1)
(4.96206 1.80509 1)
(4.96206 1.80509 -1)
(4.95721 1.80311 1)
(4.95721 1.80311 -1)
)


// edges:

91
(
(30 31)
(32 33)
(31 0)
(0 1)
(1 32)
(0 34)
(35 1)
(34 2)
(2 3)
(3 35)
(2 36)
(37 3)
(36 38)
(39 37)
(38 4)
(4 5)
(5 39)
(4 40)
(41 5)
(40 6)
(6 7)
(7 41)
(6 42)
(43 7)
(42 44)
(45 43)
(44 8)
(8 9)
(9 45)
(8 46)
(47 9)
(46 10)
(10 11)
(11 47)
(10 12)
(12 13)
(13 11)
(12 48)
(49 13)
(48 50)
(51 49)
(50 52)
(53 51)
(52 54)
(55 53)
(54 56)
(57 55)
(56 58)
(59 57)
(58 14)
(14 15)
(15 59)
(14 60)
(61 15)
(60 62)
(63 61)
(62 64)
(65 63)
(64 16)
(16 17)
(17 65)
(16 66)
(67 17)
(66 18)
(18 19)
(19 67)
(18 68)
(69 19)
(68 20)
(20 21)
(21 69)
(20 22)
(22 23)
(23 21)
(22 24)
(24 25)
(25 23)
(24 70)
(71 25)
(70 26)
(26 27)
(27 71)
(26 28)
(28 29)
(29 27)
(28 72)
(73 29)
(72 74)
(75 73)
(74 30)
(33 75)
)

// * * * * * * * * * * * * * * * * * * * * * * * * * * * * * * * * * * * * * //


// ************************************************************************* //
