/*--------------------------------*- C++ -*----------------------------------*\
| =========                 |                                                 |
| \\      /  F ield         | OpenFOAM: The Open Source CFD Toolbox           |
|  \\    /   O peration     | Version:  v1912                                 |
|   \\  /    A nd           | Website:  www.openfoam.com                      |
|    \\/     M anipulation  |                                                 |
\*---------------------------------------------------------------------------*/
FoamFile
{
    version     2.0;
    format      ascii;
    class       featureEdgeMesh;
    location    "constant/triSurface";
    object      single_vanel.eMesh;
}
// * * * * * * * * * * * * * * * * * * * * * * * * * * * * * * * * * * * * * //


// points:

76
(
(0.113062 -0.384183 1)
(0.113062 -0.384183 -1)
(0.101263 -0.371442 1)
(0.101263 -0.371442 -1)
(0.0945343 -0.355434 1)
(0.0945343 -0.355434 -1)
(0.093686 -0.338089 1)
(0.093686 -0.338089 -1)
(0.0988209 -0.321501 1)
(0.0988209 -0.321501 -1)
(0.103465 -0.314126 1)
(0.103465 -0.314126 -1)
(0.116206 -0.302328 1)
(0.116206 -0.302328 -1)
(0.123916 -0.298263 1)
(0.123916 -0.298263 -1)
(0.149558 -0.29475 1)
(0.149558 -0.29475 -1)
(4.95637 -1.78892 1)
(4.95637 -1.78892 -1)
(4.96578 -1.80352 1)
(4.96578 -1.80352 -1)
(4.96929 -1.82916 1)
(4.96929 -1.82916 -1)
(4.96745 -1.83768 1)
(4.96745 -1.83768 -1)
(4.95951 -1.85313 1)
(4.95951 -1.85313 -1)
(4.95366 -1.85958 1)
(4.95366 -1.85958 -1)
(4.93906 -1.86899 1)
(4.93906 -1.86899 -1)
(4.92213 -1.87284 1)
(4.92213 -1.87284 -1)
(0.128506 -0.39212 1)
(0.120437 -0.388827 1)
(0.120437 -0.388827 -1)
(0.128506 -0.39212 -1)
(0.106605 -0.378328 1)
(0.106605 -0.378328 -1)
(0.0971986 -0.363732 1)
(0.0971986 -0.363732 -1)
(0.0933515 -0.346799 1)
(0.0933515 -0.346799 -1)
(0.0955278 -0.329571 1)
(0.0955278 -0.329571 -1)
(0.10932 -0.30767 1)
(0.10932 -0.30767 -1)
(0.132214 -0.295599 1)
(0.132214 -0.295599 -1)
(0.140849 -0.294416 1)
(0.140849 -0.294416 -1)
(0.158077 -0.296592 1)
(0.158077 -0.296592 -1)
(4.93447 -1.77513 1)
(4.93447 -1.77513 -1)
(4.94254 -1.77843 1)
(4.94254 -1.77843 -1)
(4.94991 -1.78307 1)
(4.94991 -1.78307 -1)
(4.96171 -1.79581 1)
(4.96171 -1.79581 -1)
(4.96844 -1.81182 1)
(4.96844 -1.81182 -1)
(4.96962 -1.82045 1)
(4.96962 -1.82045 -1)
(4.96415 -1.84575 1)
(4.96415 -1.84575 -1)
(4.94677 -1.86492 1)
(4.94677 -1.86492 -1)
(4.93076 -1.87165 1)
(4.93076 -1.87165 -1)
(4.91342 -1.8725 1)
(4.91342 -1.8725 -1)
(4.9049 -1.87066 1)
(4.9049 -1.87066 -1)
)


// edges:

93
(
(34 35)
(36 37)
(35 0)
(0 1)
(1 36)
(0 38)
(39 1)
(38 2)
(2 3)
(3 39)
(2 40)
(41 3)
(40 4)
(4 5)
(5 41)
(4 42)
(43 5)
(42 6)
(6 7)
(7 43)
(6 44)
(45 7)
(44 8)
(8 9)
(9 45)
(8 10)
(10 11)
(11 9)
(10 46)
(47 11)
(46 12)
(12 13)
(13 47)
(12 14)
(14 15)
(15 13)
(14 48)
(49 15)
(48 50)
(51 49)
(50 16)
(16 17)
(17 51)
(16 52)
(53 17)
(52 54)
(55 53)
(54 56)
(57 55)
(56 58)
(59 57)
(58 18)
(18 19)
(19 59)
(18 60)
(61 19)
(60 20)
(20 21)
(21 61)
(20 62)
(63 21)
(62 64)
(65 63)
(64 22)
(22 23)
(23 65)
(22 24)
(24 25)
(25 23)
(24 66)
(67 25)
(66 26)
(26 27)
(27 67)
(26 28)
(28 29)
(29 27)
(28 68)
(69 29)
(68 30)
(30 31)
(31 69)
(30 70)
(71 31)
(70 32)
(32 33)
(33 71)
(32 72)
(73 33)
(72 74)
(75 73)
(74 34)
(37 75)
)

// * * * * * * * * * * * * * * * * * * * * * * * * * * * * * * * * * * * * * //


// ************************************************************************* //
