/*--------------------------------*- C++ -*----------------------------------*\
| =========                 |                                                 |
| \\      /  F ield         | OpenFOAM: The Open Source CFD Toolbox           |
|  \\    /   O peration     | Version:  v1912                                 |
|   \\  /    A nd           | Website:  www.openfoam.com                      |
|    \\/     M anipulation  |                                                 |
\*---------------------------------------------------------------------------*/
FoamFile
{
    version     2.0;
    format      ascii;
    class       extendedFeatureEdgeMesh;
    location    "constant/extendedFeatureEdgeMesh";
    object      tbwall.extendedFeatureEdgeMesh;
}
// * * * * * * * * * * * * * * * * * * * * * * * * * * * * * * * * * * * * * //

// points

16
(
(0.24 0.05 -1)
(0.24 0.05 1)
(-0.04 0.05 -1)
(-0.04 0.05 1)
(0.24 0.07 -1)
(0.24 0.07 1)
(-0.04 0.07 -1)
(-0.04 0.07 1)
(0.24 -0.07 -1)
(0.24 -0.07 1)
(-0.04 -0.07 -1)
(-0.04 -0.07 1)
(0.24 -0.05 -1)
(0.24 -0.05 1)
(-0.04 -0.05 -1)
(-0.04 -0.05 1)
)

// edges

24
(
(0 1)
(2 0)
(3 2)
(1 3)
(4 5)
(0 4)
(5 1)
(6 7)
(4 6)
(7 5)
(6 2)
(3 7)
(8 9)
(10 8)
(11 10)
(9 11)
(12 13)
(8 12)
(13 9)
(14 15)
(12 14)
(15 13)
(14 10)
(11 15)
)

// concaveStart mixedStart nonFeatureStart
16 16 16
// internalStart flatStart openStart multipleStart
24 24 24 24
// normals

24
(
(0 -1 0)
(1 0 0)
(0 0 -1)
(0 -1 0)
(-1 0 0)
(0 0 1)
(1 0 -0)
(0 1 -0)
(0 0 1)
(0 1 0)
(-1 0 0)
(0 0 -1)
(0 -1 0)
(1 0 0)
(0 0 -1)
(0 -1 0)
(-1 0 0)
(0 0 1)
(1 0 -0)
(0 1 -0)
(0 0 1)
(0 1 0)
(-1 0 0)
(0 0 -1)
)

// normal volume types

24
(
0
0
0
0
0
0
0
0
0
0
0
0
0
0
0
0
0
0
0
0
0
0
0
0
)

// normalDirections

24
(
2(1 -1)
2(1 -1)
2(1 -1)
2(1 -1)
2(1 -1)
2(1 -1)
2(1 -1)
2(1 -1)
2(1 -1)
2(1 -1)
2(1 -1)
2(1 -1)
2(1 -1)
2(1 -1)
2(1 -1)
2(1 -1)
2(1 -1)
2(1 -1)
2(1 -1)
2(1 -1)
2(1 -1)
2(1 -1)
2(1 -1)
2(1 -1)
)

// edgeNormals

24
(
2(0 1)
2(0 2)
2(3 4)
2(3 5)
2(6 7)
2(6 2)
2(1 8)
2(9 10)
2(9 11)
2(7 8)
2(4 11)
2(10 5)
2(12 13)
2(12 14)
2(15 16)
2(15 17)
2(18 19)
2(18 14)
2(13 20)
2(21 22)
2(21 23)
2(19 20)
2(16 23)
2(22 17)
)

// featurePointNormals

16
(
3(0 1 2)
3(0 1 5)
3(0 2 4)
3(3 4 5)
3(6 7 2)
3(6 7 8)
3(9 10 11)
3(9 10 8)
3(12 13 14)
3(12 13 17)
3(12 14 16)
3(15 16 17)
3(18 19 14)
3(18 19 20)
3(21 22 23)
3(21 22 20)
)

// featurePointEdges

16
(
3(0 5 1)
3(3 6 0)
3(2 10 1)
3(2 11 3)
3(4 8 5)
3(6 9 4)
3(7 10 8)
3(9 11 7)
3(12 17 13)
3(15 18 12)
3(14 22 13)
3(14 23 15)
3(16 20 17)
3(18 21 16)
3(19 22 20)
3(21 23 19)
)

// regionEdges
0()


// ************************************************************************* //
