/*--------------------------------*- C++ -*----------------------------------*\
| =========                 |                                                 |
| \\      /  F ield         | OpenFOAM: The Open Source CFD Toolbox           |
|  \\    /   O peration     | Version:  v1912                                 |
|   \\  /    A nd           | Website:  www.openfoam.com                      |
|    \\/     M anipulation  |                                                 |
\*---------------------------------------------------------------------------*/
FoamFile
{
    version     2.0;
    format      ascii;
    class       polyTopoChanger;
    location    "constant/polyMesh";
    object      meshModifiers;
}
// * * * * * * * * * * * * * * * * * * * * * * * * * * * * * * * * * * * * * //

1
(
couple0
{
    type            slidingInterface;
    masterFaceZoneName inletoutlet1MasterZone;
    slaveFaceZoneName inletoutlet1SlaveZone;
    cutPointZoneName inletoutlet1CutPointZone;
    cutFaceZoneName inletoutlet1CutFaceZone;
    masterPatchName inlet;
    slavePatchName  outlet1;
    typeOfMatch     partial;
    coupleDecouple  true;
    projection      visible;
    attached        true;
    active          true;
    masterFaceCells List<label> 
53
(
10223
10224
10225
10226
10227
10228
10229
10230
10231
10232
10233
10234
10235
10236
10237
10238
10239
10240
10241
10242
10859
11060
11502
11503
11504
11505
11506
16439
16440
16441
16442
16443
16444
16445
16446
16447
16448
16449
16450
16451
16452
16453
16454
16455
16456
16457
16458
16459
16460
17223
17377
17378
17434
)
;
    slaveFaceCells  List<label> 
54
(
13144
13145
13146
13147
13148
13149
13150
13151
13152
13153
13154
13155
13156
13157
13158
13159
13160
13161
13162
13163
13164
13165
13166
13167
13363
13364
13759
15291
15292
15293
15294
15295
15296
15297
15298
15299
15300
15301
15302
15303
15304
15305
15306
15307
15308
15309
15310
15311
15312
15313
15314
15507
15508
15893
)
;
    masterStickOutFaces List<label> 
160
(
86018
94320
63111
63112
55957
55958
55959
55960
55961
55962
55963
86172
55964
86173
55965
55966
55967
55968
55969
55970
55971
55972
55973
55974
55975
55976
79018
79019
79020
79021
79022
79023
79024
79025
79026
79027
34484
79028
79029
79030
34487
79031
79032
79033
79034
79035
79036
79037
63168
86229
62173
62174
62175
62176
62177
62178
62179
62180
62181
62182
62183
62184
62185
62186
62187
62188
62189
62190
62191
62192
62193
62194
85234
85235
85236
85237
85238
85239
85240
85241
85242
85243
85244
85245
85246
85247
85248
85249
85250
85251
85252
85253
85254
85255
56593
79654
22823
22825
22827
22829
22832
20320
20323
20324
20326
20328
20330
20332
20334
20336
20338
20340
20342
20344
32634
21882
20346
32636
20348
32637
20350
32639
20352
32641
20354
32643
20356
32645
20358
32647
32649
20361
32651
32653
32655
32657
32659
57236
32661
57237
57238
32663
57239
57240
32665
32667
32669
32671
32673
32675
32679
80297
80298
80299
80300
80301
94666
56794
62957
79855
)
;
    slaveStickOutFaces List<label> 
163
(
58880
58881
58882
58883
58884
58885
58886
58887
58888
58889
58890
58891
58892
58893
58894
58895
58896
58897
58898
58899
81939
58900
81940
58901
81941
81942
81943
81944
81945
81946
81947
81948
81949
81950
81951
81952
81953
81954
81955
81956
81957
81958
81959
81960
81961
81962
93239
61025
61026
61027
61028
61029
59493
61030
61031
61032
61033
61034
61035
61036
61037
61038
61039
61040
61041
61042
61043
61044
61045
61046
84086
61047
84087
61048
84088
84089
84090
82554
84091
84092
84093
84094
84095
84096
84097
84098
84099
84100
84101
84102
84103
84104
84105
84106
84107
84108
84109
61627
84688
26324
26325
26327
26328
59097
26329
26330
59098
26331
26332
26333
26334
26335
26336
26337
26338
26339
26340
26341
26342
26343
26344
26345
26346
26347
26348
26349
82158
82159
26871
26874
92979
61241
61242
84302
84303
31091
31093
30613
30614
30615
30616
30617
30618
30619
30620
30621
30622
30623
30624
30625
30626
30627
30628
30629
30630
30631
30632
30633
30634
30635
30637
58878
58879
)
;
    retiredPointMap 
106
(
38446 35757
52044 28266
52045 28267
52046 33007
52047 33006
52048 28269
52049 33009
52050 28270
52051 33010
52052 28271
52053 33011
52054 28272
52055 33012
52056 28273
52057 33013
52058 28274
52059 33014
52060 28275
52061 33015
52062 28276
52063 33016
52064 28277
52065 33017
52066 28278
52067 33018
52068 28279
52069 33019
52070 28280
52071 33020
52072 28281
52073 33021
52074 28282
52075 33022
52076 28283
52077 33023
52078 28284
52079 33024
52080 28285
52081 33025
52082 28286
52083 33026
52084 28287
52085 33027
52086 28288
52087 33028
52088 28289
52089 33029
52090 28290
52091 33030
52092 28291
52093 33031
52094 28685
52095 33425
52096 28686
52097 33426
52098 30540
52099 35280
52100 30541
52101 35281
52102 30542
52103 35282
52104 30543
52105 35283
52106 30544
52107 35284
52108 30545
52109 35285
52110 30546
52111 35286
52112 30547
52113 35287
52114 30548
52115 35288
52116 30549
52117 35289
52118 30550
52119 35290
52120 30551
52121 35291
52122 30552
52123 35292
52124 30553
52125 35293
52126 30554
52127 35294
52128 30555
52129 35295
52130 30556
52131 35296
52132 30557
52133 35297
52134 30558
52135 35298
52136 30559
52137 35299
52138 30560
52139 35300
52140 30561
52141 35301
52142 30562
52143 35302
52144 30564
52145 35304
52146 31015
52147 35755
36595 31017
);
    cutPointEdgePairMap 0();
    integralAdjTol 0.5;
    edgeEndCutoffTol 0.1;
}
)

// ************************************************************************* //
