/*--------------------------------*- C++ -*----------------------------------*\
| =========                 |                                                 |
| \\      /  F ield         | OpenFOAM: The Open Source CFD Toolbox           |
|  \\    /   O peration     | Version:  v1912                                 |
|   \\  /    A nd           | Website:  www.openfoam.com                      |
|    \\/     M anipulation  |                                                 |
\*---------------------------------------------------------------------------*/
FoamFile
{
    version     2.0;
    format      ascii;
    class       extendedFeatureEdgeMesh;
    location    "constant/extendedFeatureEdgeMesh";
    object      single_vane.extendedFeatureEdgeMesh;
}
// * * * * * * * * * * * * * * * * * * * * * * * * * * * * * * * * * * * * * //

// points

76
(
(0.141318 -0.0492404 1)
(0.141318 -0.0492404 -1)
(0.117861 -0.0383022 1)
(0.117861 -0.0383022 -1)
(0.106699 -0.025 1)
(0.106699 -0.025 -1)
(0.10076 -0.00868241 1)
(0.10076 -0.00868241 -1)
(0.10076 0.00868241 1)
(0.10076 0.00868241 -1)
(0.106699 0.025 1)
(0.106699 0.025 -1)
(0.117861 0.0383022 1)
(0.117861 0.0383022 -1)
(0.141318 0.0492404 1)
(0.141318 0.0492404 -1)
(5.175 0.0433013 1)
(5.175 0.0433013 -1)
(5.1883 0.0321394 1)
(5.1883 0.0321394 -1)
(5.19698 0.017101 1)
(5.19698 0.017101 -1)
(5.19698 -0.017101 1)
(5.19698 -0.017101 -1)
(5.1883 -0.0321394 1)
(5.1883 -0.0321394 -1)
(5.175 -0.0433013 1)
(5.175 -0.0433013 -1)
(0.15 -0.05 1)
(0.15 -0.05 -1)
(0.132899 -0.0469846 1)
(0.132899 -0.0469846 -1)
(0.125 -0.0433013 1)
(0.125 -0.0433013 -1)
(0.111698 -0.0321394 1)
(0.111698 -0.0321394 -1)
(0.103015 -0.017101 1)
(0.103015 -0.017101 -1)
(0.1 6.12323e-18 1)
(0.1 6.12323e-18 -1)
(0.103015 0.017101 1)
(0.103015 0.017101 -1)
(0.111698 0.0321394 1)
(0.111698 0.0321394 -1)
(0.125 0.0433013 1)
(0.125 0.0433013 -1)
(0.132899 0.0469846 1)
(0.132899 0.0469846 -1)
(0.15 0.05 1)
(0.15 0.05 -1)
(5.15 0.05 1)
(5.15 0.05 -1)
(5.15868 0.0492404 1)
(5.15868 0.0492404 -1)
(5.1671 0.0469846 1)
(5.1671 0.0469846 -1)
(5.18214 0.0383022 1)
(5.18214 0.0383022 -1)
(5.1933 0.025 1)
(5.1933 0.025 -1)
(5.19924 0.00868241 1)
(5.19924 0.00868241 -1)
(5.2 -1.22465e-17 1)
(5.2 -1.22465e-17 -1)
(5.19924 -0.00868241 1)
(5.19924 -0.00868241 -1)
(5.1933 -0.025 1)
(5.1933 -0.025 -1)
(5.18214 -0.0383022 1)
(5.18214 -0.0383022 -1)
(5.1671 -0.0469846 1)
(5.1671 -0.0469846 -1)
(5.15868 -0.0492404 1)
(5.15868 -0.0492404 -1)
(5.15 -0.05 1)
(5.15 -0.05 -1)
)

// edges

90
(
(28 0)
(0 1)
(1 29)
(0 30)
(31 1)
(30 32)
(33 31)
(32 2)
(2 3)
(3 33)
(2 34)
(35 3)
(34 4)
(4 5)
(5 35)
(4 36)
(37 5)
(36 6)
(6 7)
(7 37)
(6 38)
(39 7)
(38 8)
(8 9)
(9 39)
(8 40)
(41 9)
(40 10)
(10 11)
(11 41)
(10 42)
(43 11)
(42 12)
(12 13)
(13 43)
(12 44)
(45 13)
(44 46)
(47 45)
(46 14)
(14 15)
(15 47)
(14 48)
(49 15)
(48 50)
(51 49)
(50 52)
(53 51)
(52 54)
(55 53)
(54 16)
(16 17)
(17 55)
(16 56)
(57 17)
(56 18)
(18 19)
(19 57)
(18 58)
(59 19)
(58 20)
(20 21)
(21 59)
(20 60)
(61 21)
(60 62)
(63 61)
(62 64)
(65 63)
(64 22)
(22 23)
(23 65)
(22 66)
(67 23)
(66 24)
(24 25)
(25 67)
(24 68)
(69 25)
(68 26)
(26 27)
(27 69)
(26 70)
(71 27)
(70 72)
(73 71)
(72 74)
(75 73)
(74 28)
(29 75)
)

// concaveStart mixedStart nonFeatureStart
28 28 28
// internalStart flatStart openStart multipleStart
90 90 90 90
// normals

148
(
(-0.0871555 -0.996195 0)
(0 0 1)
(-0.0871555 -0.996195 0)
(-0.258819 -0.965926 0)
(0 0 -1)
(0 0 1)
(-0.258819 -0.965926 0)
(0 0 -1)
(-0.422618 -0.906308 0)
(-0.422618 -0.906308 0)
(0 0 -1)
(-0.573575 -0.819153 0)
(0 0 1)
(-0.573575 -0.819153 0)
(-0.707109 -0.707104 0)
(0 0 -1)
(0 0 1)
(-0.707109 -0.707104 0)
(-0.819149 -0.573581 0)
(0 0 1)
(-0.819149 -0.573581 0)
(-0.90631 -0.422613 0)
(0 0 -1)
(0 0 1)
(-0.90631 -0.422613 0)
(0 0 -1)
(-0.965925 -0.258823 0)
(0 0 1)
(-0.965925 -0.258823 0)
(-0.996195 -0.0871545 0)
(0 0 -1)
(0 0 1)
(-0.996195 -0.0871545 0)
(0 0 -1)
(-0.996195 0.0871545 0)
(0 0 1)
(-0.996195 0.0871545 0)
(-0.965925 0.258823 0)
(0 0 -1)
(0 0 1)
(-0.965925 0.258823 0)
(0 0 -1)
(-0.90631 0.422613 0)
(0 0 1)
(-0.90631 0.422613 0)
(-0.819149 0.573581 0)
(0 0 -1)
(0 0 1)
(-0.819149 0.573581 0)
(0 0 -1)
(-0.707109 0.707104 0)
(0 0 1)
(-0.707109 0.707104 0)
(-0.573575 0.819153 0)
(0 0 -1)
(0 0 1)
(-0.573575 0.819153 0)
(0 0 -1)
(-0.422618 0.906308 0)
(0 0 1)
(-0.422618 0.906308 0)
(0 0 -1)
(-0.258819 0.965926 0)
(0 0 1)
(-0.258819 0.965926 0)
(-0.0871555 0.996195 0)
(0 0 -1)
(0 -0 1)
(-0.0871555 0.996195 0)
(0 0 -1)
(0 1 0)
(0 0 1)
(0 1 0)
(0 0 -1)
(0.0871617 0.996194 -0)
(0 0 1)
(0.0871617 0.996194 0)
(0 0 -1)
(0.258807 0.965929 -0)
(0 0 1)
(0.258807 0.965929 0)
(0 0 -1)
(0.422606 0.906314 -0)
(0 0 1)
(0.422606 0.906314 0)
(0.573612 0.819127 -0)
(0 -0 -1)
(0 0 1)
(0.573612 0.819127 0)
(0 0 -1)
(0.707091 0.707123 -0)
(0 0 1)
(0.707091 0.707123 0)
(0.819146 0.573585 -0)
(0 0 -1)
(0 0 1)
(0.819146 0.573585 0)
(0 -0 -1)
(0.906299 0.422638 -0)
(0 0 1)
(0.906299 0.422638 0)
(0.965935 0.258785 -0)
(0 -0 -1)
(0 0 1)
(0.965935 0.258785 0)
(0 0 -1)
(0.996195 0.0871545 -0)
(0 0 1)
(0.996195 0.0871545 0)
(0 0 -1)
(0.996195 -0.0871545 0)
(0 -0 1)
(0.996195 -0.0871545 0)
(0 0 -1)
(0.965935 -0.258785 0)
(0 0 1)
(0.965935 -0.258785 0)
(0.906299 -0.422638 0)
(0 0 -1)
(0 0 1)
(0.906299 -0.422638 0)
(0 0 -1)
(0.819146 -0.573585 0)
(0 0 1)
(0.819146 -0.573585 0)
(0.707091 -0.707123 0)
(0 0 -1)
(0 0 1)
(0.707091 -0.707123 0)
(0 0 -1)
(0.573612 -0.819127 0)
(0 0 1)
(0.573612 -0.819127 0)
(0.422606 -0.906314 0)
(0 0 -1)
(0 -0 1)
(0.422606 -0.906314 0)
(0 0 -1)
(0.258807 -0.965929 0)
(0.258807 -0.965929 0)
(0.0871617 -0.996194 0)
(0 -0 1)
(0.0871617 -0.996194 0)
(0 0 -1)
(0 -1 0)
(0 -0 1)
(0 -1 -0)
(0 0 -1)
)

// normal volume types

148
(
0
0
0
0
0
0
0
0
0
0
0
0
0
0
0
0
0
0
0
0
0
0
0
0
0
0
0
0
0
0
0
0
0
0
0
0
0
0
0
0
0
0
0
0
0
0
0
0
0
0
0
0
0
0
0
0
0
0
0
0
0
0
0
0
0
0
0
0
0
0
0
0
0
0
0
0
0
0
0
0
0
0
0
0
0
0
0
0
0
0
0
0
0
0
0
0
0
0
0
0
0
0
0
0
0
0
0
0
0
0
0
0
0
0
0
0
0
0
0
0
0
0
0
0
0
0
0
0
0
0
0
0
0
0
0
0
0
0
0
0
0
0
0
0
0
0
0
0
)

// normalDirections

90
(
2(1 -1)
2(1 -1)
2(1 -1)
2(1 -1)
2(1 -1)
2(1 -1)
2(1 -1)
2(1 -1)
2(1 -1)
2(1 -1)
2(1 -1)
2(1 -1)
2(1 -1)
2(1 -1)
2(1 -1)
2(1 -1)
2(1 -1)
2(1 -1)
2(1 -1)
2(1 -1)
2(1 -1)
2(1 -1)
2(1 -1)
2(1 -1)
2(1 -1)
2(1 -1)
2(1 -1)
2(1 -1)
2(1 -1)
2(1 -1)
2(1 -1)
2(1 -1)
2(1 -1)
2(1 -1)
2(1 -1)
2(1 -1)
2(1 -1)
2(1 -1)
2(1 -1)
2(1 -1)
2(1 -1)
2(1 -1)
2(1 -1)
2(1 -1)
2(1 -1)
2(1 -1)
2(1 -1)
2(1 -1)
2(1 -1)
2(1 -1)
2(1 -1)
2(1 -1)
2(1 -1)
2(1 -1)
2(1 -1)
2(1 -1)
2(1 -1)
2(1 -1)
2(1 -1)
2(1 -1)
2(1 -1)
2(1 -1)
2(1 -1)
2(1 -1)
2(1 -1)
2(1 -1)
2(1 -1)
2(1 -1)
2(1 -1)
2(1 -1)
2(1 -1)
2(1 -1)
2(1 -1)
2(1 -1)
2(1 -1)
2(1 -1)
2(1 -1)
2(1 -1)
2(1 -1)
2(1 -1)
2(1 -1)
2(1 -1)
2(1 -1)
2(1 -1)
2(1 -1)
2(1 -1)
2(1 -1)
2(1 -1)
2(1 -1)
2(1 -1)
)

// edgeNormals

90
(
2(0 1)
2(2 3)
2(2 4)
2(3 5)
2(6 7)
2(8 5)
2(9 10)
2(11 12)
2(13 14)
2(13 15)
2(14 16)
2(17 15)
2(18 19)
2(20 21)
2(20 22)
2(21 23)
2(24 25)
2(26 27)
2(28 29)
2(28 30)
2(29 31)
2(32 33)
2(34 35)
2(36 37)
2(36 38)
2(37 39)
2(40 41)
2(42 43)
2(44 45)
2(44 46)
2(45 47)
2(48 49)
2(50 51)
2(52 53)
2(52 54)
2(53 55)
2(56 57)
2(58 59)
2(60 61)
2(62 63)
2(64 65)
2(64 66)
2(65 67)
2(68 69)
2(70 71)
2(72 73)
2(74 75)
2(76 77)
2(78 79)
2(80 81)
2(82 83)
2(84 85)
2(84 86)
2(85 87)
2(88 89)
2(90 91)
2(92 93)
2(92 94)
2(93 95)
2(96 97)
2(98 99)
2(100 101)
2(100 102)
2(101 103)
2(104 105)
2(106 107)
2(108 109)
2(110 111)
2(112 113)
2(114 115)
2(116 117)
2(116 118)
2(117 119)
2(120 121)
2(122 123)
2(124 125)
2(124 126)
2(125 127)
2(128 129)
2(130 131)
2(132 133)
2(132 134)
2(133 135)
2(136 137)
2(138 135)
2(139 137)
2(140 141)
2(142 143)
2(144 145)
2(146 147)
)

// featurePointNormals

28
(
3(0 1 3)
3(2 3 4)
3(11 12 14)
3(13 14 15)
3(18 19 21)
3(20 21 22)
3(26 27 29)
3(28 29 30)
3(34 35 37)
3(36 37 38)
3(42 43 45)
3(44 45 46)
3(50 51 53)
3(52 53 54)
3(62 63 65)
3(64 65 66)
3(82 83 85)
3(84 85 86)
3(90 91 93)
3(92 93 94)
3(98 99 101)
3(100 101 102)
3(114 115 117)
3(116 117 118)
3(122 123 125)
3(124 125 126)
3(130 131 133)
3(132 133 134)
)

// featurePointEdges

28
(
3(1 3 0)
3(1 4 2)
3(8 10 7)
3(8 11 9)
3(13 15 12)
3(13 16 14)
3(18 20 17)
3(18 21 19)
3(23 25 22)
3(23 26 24)
3(28 30 27)
3(28 31 29)
3(33 35 32)
3(33 36 34)
3(40 42 39)
3(40 43 41)
3(51 53 50)
3(51 54 52)
3(56 58 55)
3(56 59 57)
3(61 63 60)
3(61 64 62)
3(70 72 69)
3(70 73 71)
3(75 77 74)
3(75 78 76)
3(80 82 79)
3(80 83 81)
)

// regionEdges
0()


// ************************************************************************* //
