/*--------------------------------*- C++ -*----------------------------------*\
| =========                 |                                                 |
| \\      /  F ield         | OpenFOAM: The Open Source CFD Toolbox           |
|  \\    /   O peration     | Version:  v1912                                 |
|   \\  /    A nd           | Website:  www.openfoam.com                      |
|    \\/     M anipulation  |                                                 |
\*---------------------------------------------------------------------------*/
FoamFile
{
    version     2.0;
    format      ascii;
    class       extendedFeatureEdgeMesh;
    location    "constant/extendedFeatureEdgeMesh";
    object      single_vaneu.extendedFeatureEdgeMesh;
}
// * * * * * * * * * * * * * * * * * * * * * * * * * * * * * * * * * * * * * //

// points

76
(
(0.149558 0.29475 1)
(0.149558 0.29475 -1)
(0.123916 0.298263 1)
(0.123916 0.298263 -1)
(0.116206 0.302328 1)
(0.116206 0.302328 -1)
(0.103465 0.314126 1)
(0.103465 0.314126 -1)
(0.0988209 0.321501 1)
(0.0988209 0.321501 -1)
(0.093686 0.338089 1)
(0.093686 0.338089 -1)
(0.0945343 0.355434 1)
(0.0945343 0.355434 -1)
(0.101263 0.371442 1)
(0.101263 0.371442 -1)
(0.113062 0.384183 1)
(0.113062 0.384183 -1)
(4.92213 1.87284 1)
(4.92213 1.87284 -1)
(4.93906 1.86899 1)
(4.93906 1.86899 -1)
(4.95366 1.85958 1)
(4.95366 1.85958 -1)
(4.95951 1.85313 1)
(4.95951 1.85313 -1)
(4.96745 1.83768 1)
(4.96745 1.83768 -1)
(4.96929 1.82916 1)
(4.96929 1.82916 -1)
(4.96578 1.80352 1)
(4.96578 1.80352 -1)
(4.95637 1.78892 1)
(4.95637 1.78892 -1)
(0.158077 0.296592 1)
(0.158077 0.296592 -1)
(0.140849 0.294416 1)
(0.140849 0.294416 -1)
(0.132214 0.295599 1)
(0.132214 0.295599 -1)
(0.10932 0.30767 1)
(0.10932 0.30767 -1)
(0.0955278 0.329571 1)
(0.0955278 0.329571 -1)
(0.0933515 0.346799 1)
(0.0933515 0.346799 -1)
(0.0971986 0.363732 1)
(0.0971986 0.363732 -1)
(0.106605 0.378328 1)
(0.106605 0.378328 -1)
(0.120437 0.388827 1)
(0.120437 0.388827 -1)
(0.128506 0.39212 1)
(0.128506 0.39212 -1)
(4.9049 1.87066 1)
(4.9049 1.87066 -1)
(4.91342 1.8725 1)
(4.91342 1.8725 -1)
(4.93076 1.87165 1)
(4.93076 1.87165 -1)
(4.94677 1.86492 1)
(4.94677 1.86492 -1)
(4.96415 1.84575 1)
(4.96415 1.84575 -1)
(4.96962 1.82045 1)
(4.96962 1.82045 -1)
(4.96844 1.81182 1)
(4.96844 1.81182 -1)
(4.96171 1.79581 1)
(4.96171 1.79581 -1)
(4.94991 1.78307 1)
(4.94991 1.78307 -1)
(4.94254 1.77843 1)
(4.94254 1.77843 -1)
(4.93447 1.77513 1)
(4.93447 1.77513 -1)
)

// edges

93
(
(34 0)
(0 1)
(1 35)
(0 36)
(37 1)
(36 38)
(39 37)
(38 2)
(2 3)
(3 39)
(2 4)
(4 5)
(5 3)
(4 40)
(41 5)
(40 6)
(6 7)
(7 41)
(6 8)
(8 9)
(9 7)
(8 42)
(43 9)
(42 10)
(10 11)
(11 43)
(10 44)
(45 11)
(44 12)
(12 13)
(13 45)
(12 46)
(47 13)
(46 14)
(14 15)
(15 47)
(14 48)
(49 15)
(48 16)
(16 17)
(17 49)
(16 50)
(51 17)
(50 52)
(53 51)
(52 54)
(55 53)
(54 56)
(57 55)
(56 18)
(18 19)
(19 57)
(18 58)
(59 19)
(58 20)
(20 21)
(21 59)
(20 60)
(61 21)
(60 22)
(22 23)
(23 61)
(22 24)
(24 25)
(25 23)
(24 62)
(63 25)
(62 26)
(26 27)
(27 63)
(26 28)
(28 29)
(29 27)
(28 64)
(65 29)
(64 66)
(67 65)
(66 30)
(30 31)
(31 67)
(30 68)
(69 31)
(68 32)
(32 33)
(33 69)
(32 70)
(71 33)
(70 72)
(73 71)
(72 74)
(75 73)
(74 34)
(35 75)
)

// concaveStart mixedStart nonFeatureStart
34 34 34
// internalStart flatStart openStart multipleStart
93 93 93 93
// normals

148
(
(0.211338 -0.977413 0)
(0 0 1)
(0.211338 -0.977413 0)
(0.0383223 -0.999265 0)
(0 0 -1)
(0 0 1)
(0.0383223 -0.999265 0)
(-0 0 -1)
(-0.135733 -0.990745 0)
(-0.135733 -0.990745 0)
(0 0 -1)
(-0.305675 -0.952136 0)
(0 0 1)
(-0.305675 -0.952136 0)
(-0.466383 -0.884583 0)
(0 0 -1)
(0 0 1)
(-0.466383 -0.884583 0)
(-0.612956 -0.790117 0)
(0 0 1)
(-0.612956 -0.790117 0)
(0 0 -1)
(-0.740745 -0.671786 0)
(0 0 1)
(-0.740745 -0.671786 0)
(-0.846202 -0.532862 0)
(0 0 -1)
(0 0 1)
(-0.846202 -0.532862 0)
(-0.925879 -0.37782 0)
(0 0 -1)
(0 0 1)
(-0.925879 -0.37782 0)
(0 0 -1)
(-0.977412 -0.211341 0)
(0 0 1)
(-0.977412 -0.211341 0)
(-0.999263 -0.038376 0)
(0 0 -1)
(0 0 1)
(-0.999263 -0.038376 0)
(0 0 -1)
(-0.990749 0.13571 0)
(0 0 1)
(-0.990749 0.13571 0)
(-0.952126 0.305706 0)
(0 0 -1)
(0 0 1)
(-0.952126 0.305706 0)
(0 0 -1)
(-0.88461 0.466332 0)
(0 0 1)
(-0.88461 0.466332 0)
(-0.790118 0.612955 0)
(0 0 -1)
(0 0 1)
(-0.790118 0.612955 0)
(0 0 -1)
(-0.67173 0.740796 0)
(0 0 1)
(-0.67173 0.740796 0)
(-0.532853 0.846208 0)
(0 0 -1)
(0 0 1)
(-0.532853 0.846208 0)
(0 0 -1)
(-0.377852 0.925866 0)
(0 0 1)
(-0.377852 0.925866 0)
(0 0 -1)
(-0.295708 0.955278 0)
(0 -0 1)
(-0.295708 0.955278 0)
(0 0 -1)
(-0.211092 0.977466 0)
(0 0 1)
(-0.211092 0.977466 0)
(0 0 -1)
(-0.0390182 0.999238 0)
(0 0 1)
(-0.0390182 0.999238 0)
(0.136609 0.990625 -0)
(0 0 -1)
(0 0 1)
(0.136609 0.990625 0)
(0 0 -1)
(0.305186 0.952293 -0)
(0 0 1)
(0.305186 0.952293 0)
(0.466828 0.884348 -0)
(0 0 -1)
(0 0 1)
(0.466828 0.884348 0)
(0 0 -1)
(0.612598 0.790395 -0)
(0 0 1)
(0.612598 0.790395 0)
(0.740731 0.671801 -0)
(0 -0 -1)
(0 0 1)
(0.740731 0.671801 0)
(0.846572 0.532273 -0)
(0 -0 -1)
(0 0 1)
(0.846572 0.532273 0)
(0 0 -1)
(0.925594 0.378518 -0)
(0 0 1)
(0.925594 0.378518 0)
(0.977474 0.211056 -0)
(0 0 -1)
(0 0 1)
(0.977474 0.211056 0)
(0.999281 0.0379115 -0)
(0 -0 -1)
(0 0 1)
(0.999281 0.0379115 0)
(0 0 -1)
(0.990778 -0.135492 0)
(0 0 1)
(0.990778 -0.135492 0)
(0 0 -1)
(0.952282 -0.305218 0)
(0 0 1)
(0.952282 -0.305218 0)
(0.884354 -0.466817 0)
(0 0 -1)
(0 0 1)
(0.884354 -0.466817 0)
(0 0 -1)
(0.790393 -0.6126 0)
(0 0 1)
(0.790393 -0.6126 0)
(0.671265 -0.741217 0)
(0 0 -1)
(0 -0 1)
(0.671265 -0.741217 0)
(0 0 -1)
(0.532782 -0.846253 0)
(0.532782 -0.846253 0)
(0.378494 -0.925604 0)
(0 -0 1)
(0.378494 -0.925604 0)
(0 0 -1)
(0.295708 -0.955279 0)
(0 0 1)
(0.295708 -0.955279 0)
(0 0 -1)
)

// normal volume types

148
(
0
0
0
0
0
0
0
0
0
0
0
0
0
0
0
0
0
0
0
0
0
0
0
0
0
0
0
0
0
0
0
0
0
0
0
0
0
0
0
0
0
0
0
0
0
0
0
0
0
0
0
0
0
0
0
0
0
0
0
0
0
0
0
0
0
0
0
0
0
0
0
0
0
0
0
0
0
0
0
0
0
0
0
0
0
0
0
0
0
0
0
0
0
0
0
0
0
0
0
0
0
0
0
0
0
0
0
0
0
0
0
0
0
0
0
0
0
0
0
0
0
0
0
0
0
0
0
0
0
0
0
0
0
0
0
0
0
0
0
0
0
0
0
0
0
0
0
0
)

// normalDirections

93
(
2(1 -1)
2(1 -1)
2(1 -1)
2(1 -1)
2(1 -1)
2(1 -1)
2(1 -1)
2(1 -1)
2(1 -1)
2(1 -1)
2(1 -1)
2(1 -1)
2(1 -1)
2(1 -1)
2(1 -1)
2(1 -1)
2(1 -1)
2(1 -1)
2(1 -1)
2(1 -1)
2(1 -1)
2(1 -1)
2(1 -1)
2(1 -1)
2(1 -1)
2(1 -1)
2(1 -1)
2(1 -1)
2(1 -1)
2(1 -1)
2(1 -1)
2(1 -1)
2(1 -1)
2(1 -1)
2(1 -1)
2(1 -1)
2(1 -1)
2(1 -1)
2(1 -1)
2(1 -1)
2(1 -1)
2(1 -1)
2(1 -1)
2(1 -1)
2(1 -1)
2(1 -1)
2(1 -1)
2(1 -1)
2(1 -1)
2(1 -1)
2(1 -1)
2(1 -1)
2(1 -1)
2(1 -1)
2(1 -1)
2(1 -1)
2(1 -1)
2(1 -1)
2(1 -1)
2(1 -1)
2(1 -1)
2(1 -1)
2(1 -1)
2(1 -1)
2(1 -1)
2(1 -1)
2(1 -1)
2(1 -1)
2(1 -1)
2(1 -1)
2(1 -1)
2(1 -1)
2(1 -1)
2(1 -1)
2(1 -1)
2(1 -1)
2(1 -1)
2(1 -1)
2(1 -1)
2(1 -1)
2(1 -1)
2(1 -1)
2(1 -1)
2(1 -1)
2(1 -1)
2(1 -1)
2(1 -1)
2(1 -1)
2(1 -1)
2(1 -1)
2(1 -1)
2(1 -1)
2(1 -1)
)

// edgeNormals

93
(
2(0 1)
2(2 3)
2(2 4)
2(3 5)
2(6 7)
2(8 5)
2(9 10)
2(11 12)
2(13 14)
2(13 15)
2(14 16)
2(17 18)
2(17 15)
2(18 19)
2(20 21)
2(22 23)
2(24 25)
2(24 26)
2(25 27)
2(28 29)
2(28 30)
2(29 31)
2(32 33)
2(34 35)
2(36 37)
2(36 38)
2(37 39)
2(40 41)
2(42 43)
2(44 45)
2(44 46)
2(45 47)
2(48 49)
2(50 51)
2(52 53)
2(52 54)
2(53 55)
2(56 57)
2(58 59)
2(60 61)
2(60 62)
2(61 63)
2(64 65)
2(66 67)
2(68 69)
2(70 71)
2(72 73)
2(74 75)
2(76 77)
2(78 79)
2(80 81)
2(80 82)
2(81 83)
2(84 85)
2(86 87)
2(88 89)
2(88 90)
2(89 91)
2(92 93)
2(94 95)
2(96 97)
2(96 98)
2(97 99)
2(100 101)
2(100 102)
2(101 103)
2(104 105)
2(106 107)
2(108 109)
2(108 110)
2(109 111)
2(112 113)
2(112 114)
2(113 115)
2(116 117)
2(118 119)
2(120 121)
2(122 123)
2(124 125)
2(124 126)
2(125 127)
2(128 129)
2(130 131)
2(132 133)
2(132 134)
2(133 135)
2(136 137)
2(138 135)
2(139 137)
2(140 141)
2(142 143)
2(144 145)
2(146 147)
)

// featurePointNormals

34
(
3(0 1 3)
3(2 3 4)
3(11 12 14)
3(13 14 15)
3(14 16 18)
3(17 18 15)
3(22 23 25)
3(24 25 26)
3(25 27 29)
3(28 29 30)
3(34 35 37)
3(36 37 38)
3(42 43 45)
3(44 45 46)
3(50 51 53)
3(52 53 54)
3(58 59 61)
3(60 61 62)
3(78 79 81)
3(80 81 82)
3(86 87 89)
3(88 89 90)
3(94 95 97)
3(96 97 98)
3(97 99 101)
3(100 101 102)
3(106 107 109)
3(108 109 110)
3(109 111 113)
3(112 113 114)
3(122 123 125)
3(124 125 126)
3(130 131 133)
3(132 133 134)
)

// featurePointEdges

34
(
3(1 3 0)
3(1 4 2)
3(8 10 7)
3(8 12 9)
3(11 13 10)
3(11 14 12)
3(16 18 15)
3(16 20 17)
3(19 21 18)
3(19 22 20)
3(24 26 23)
3(24 27 25)
3(29 31 28)
3(29 32 30)
3(34 36 33)
3(34 37 35)
3(39 41 38)
3(39 42 40)
3(50 52 49)
3(50 53 51)
3(55 57 54)
3(55 58 56)
3(60 62 59)
3(60 64 61)
3(63 65 62)
3(63 66 64)
3(68 70 67)
3(68 72 69)
3(71 73 70)
3(71 74 72)
3(78 80 77)
3(78 81 79)
3(83 85 82)
3(83 86 84)
)

// regionEdges
0()


// ************************************************************************* //
