/*--------------------------------*- C++ -*----------------------------------*\
| =========                 |                                                 |
| \\      /  F ield         | OpenFOAM: The Open Source CFD Toolbox           |
|  \\    /   O peration     | Version:  v1912                                 |
|   \\  /    A nd           | Website:  www.openfoam.com                      |
|    \\/     M anipulation  |                                                 |
\*---------------------------------------------------------------------------*/
FoamFile
{
    version     2.0;
    format      ascii;
    class       extendedFeatureEdgeMesh;
    location    "constant/extendedFeatureEdgeMesh";
    object      single_vanem.extendedFeatureEdgeMesh;
}
// * * * * * * * * * * * * * * * * * * * * * * * * * * * * * * * * * * * * * //

// points

76
(
(0.169739 -0.0281908 1)
(0.169739 -0.0281908 -1)
(0.160716 -0.0229813 1)
(0.160716 -0.0229813 -1)
(0.154019 -0.015 1)
(0.154019 -0.015 -1)
(0.151809 -0.0102606 1)
(0.151809 -0.0102606 -1)
(0.15 3.67394e-18 1)
(0.15 3.67394e-18 -1)
(0.151809 0.0102606 1)
(0.151809 0.0102606 -1)
(0.154019 0.015 1)
(0.154019 0.015 -1)
(0.160716 0.0229813 1)
(0.160716 0.0229813 -1)
(0.169739 0.0281908 1)
(0.169739 0.0281908 -1)
(5.18521 0.0295442 1)
(5.18521 0.0295442 -1)
(5.195 0.0259808 1)
(5.195 0.0259808 -1)
(5.20298 0.0192836 1)
(5.20298 0.0192836 -1)
(5.20598 0.015 1)
(5.20598 0.015 -1)
(5.20819 0.0102606 1)
(5.20819 0.0102606 -1)
(5.21 -7.34788e-18 1)
(5.21 -7.34788e-18 -1)
(5.20819 -0.0102606 1)
(5.20819 -0.0102606 -1)
(5.20598 -0.015 1)
(5.20598 -0.015 -1)
(5.20298 -0.0192836 1)
(5.20298 -0.0192836 -1)
(5.195 -0.0259808 1)
(5.195 -0.0259808 -1)
(5.18521 -0.0295442 1)
(5.18521 -0.0295442 -1)
(0.18 -0.03 1)
(0.174791 -0.0295442 1)
(0.174791 -0.0295442 -1)
(0.18 -0.03 -1)
(0.165 -0.0259808 1)
(0.165 -0.0259808 -1)
(0.157019 -0.0192836 1)
(0.157019 -0.0192836 -1)
(0.150456 -0.00520945 1)
(0.150456 -0.00520945 -1)
(0.150456 0.00520945 1)
(0.150456 0.00520945 -1)
(0.157019 0.0192836 1)
(0.157019 0.0192836 -1)
(0.165 0.0259808 1)
(0.165 0.0259808 -1)
(0.174791 0.0295442 1)
(0.174791 0.0295442 -1)
(0.18 0.03 1)
(0.18 0.03 -1)
(5.18 0.03 1)
(5.18 0.03 -1)
(5.19026 0.0281908 1)
(5.19026 0.0281908 -1)
(5.19928 0.0229813 1)
(5.19928 0.0229813 -1)
(5.20954 0.00520945 1)
(5.20954 0.00520945 -1)
(5.20954 -0.00520945 1)
(5.20954 -0.00520945 -1)
(5.19928 -0.0229813 1)
(5.19928 -0.0229813 -1)
(5.19026 -0.0281908 1)
(5.19026 -0.0281908 -1)
(5.18 -0.03 1)
(5.18 -0.03 -1)
)

// edges

96
(
(40 41)
(42 43)
(41 0)
(0 1)
(1 42)
(0 44)
(45 1)
(44 2)
(2 3)
(3 45)
(2 46)
(47 3)
(46 4)
(4 5)
(5 47)
(4 6)
(6 7)
(7 5)
(6 48)
(49 7)
(48 8)
(8 9)
(9 49)
(8 50)
(51 9)
(50 10)
(10 11)
(11 51)
(10 12)
(12 13)
(13 11)
(12 52)
(53 13)
(52 14)
(14 15)
(15 53)
(14 54)
(55 15)
(54 16)
(16 17)
(17 55)
(16 56)
(57 17)
(56 58)
(59 57)
(58 60)
(61 59)
(60 18)
(18 19)
(19 61)
(18 62)
(63 19)
(62 20)
(20 21)
(21 63)
(20 64)
(65 21)
(64 22)
(22 23)
(23 65)
(22 24)
(24 25)
(25 23)
(24 26)
(26 27)
(27 25)
(26 66)
(67 27)
(66 28)
(28 29)
(29 67)
(28 68)
(69 29)
(68 30)
(30 31)
(31 69)
(30 32)
(32 33)
(33 31)
(32 34)
(34 35)
(35 33)
(34 70)
(71 35)
(70 36)
(36 37)
(37 71)
(36 72)
(73 37)
(72 38)
(38 39)
(39 73)
(38 74)
(75 39)
(74 40)
(43 75)
)

// concaveStart mixedStart nonFeatureStart
40 40 40
// internalStart flatStart openStart multipleStart
96 96 96 96
// normals

148
(
(-0.0871688 -0.996194 0)
(0 0 1)
(-0.0871688 -0.996194 0)
(0 0 -1)
(-0.258769 -0.965939 0)
(0 0 1)
(-0.258769 -0.965939 0)
(-0.422646 -0.906295 0)
(0 0 -1)
(0 0 1)
(-0.422646 -0.906295 0)
(0 0 -1)
(-0.573552 -0.81917 0)
(0 0 1)
(-0.573552 -0.81917 0)
(-0.707174 -0.707039 0)
(0 0 -1)
(-0.707174 -0.707039 0)
(0 0 -1)
(-0.819098 -0.573653 0)
(0 0 1)
(-0.819098 -0.573653 0)
(-0.90631 -0.422614 0)
(0 0 1)
(-0.90631 -0.422614 0)
(-0.965947 -0.25874 0)
(0 0 -1)
(0 0 1)
(-0.965947 -0.25874 0)
(0 0 -1)
(-0.996191 -0.087198 0)
(0 0 1)
(-0.996191 -0.087198 0)
(-0.996191 0.087198 0)
(0 0 -1)
(0 0 1)
(-0.996191 0.087198 0)
(0 0 -1)
(-0.965947 0.25874 0)
(0 0 1)
(-0.965947 0.25874 0)
(-0.90631 0.422614 0)
(0 0 -1)
(-0 0 1)
(-0.90631 0.422614 0)
(-0.819098 0.573653 0)
(0 0 -1)
(-0 0 1)
(-0.819098 0.573653 0)
(0 0 -1)
(-0.707174 0.707039 0)
(0 0 1)
(-0.707174 0.707039 0)
(-0.573552 0.81917 0)
(0 0 -1)
(0 0 1)
(-0.573552 0.81917 0)
(0 0 -1)
(-0.422646 0.906295 0)
(0 0 1)
(-0.422646 0.906295 0)
(-0.258769 0.965939 0)
(0 0 -1)
(0 0 1)
(-0.258769 0.965939 0)
(0 0 -1)
(-0.0871688 0.996194 0)
(0 0 1)
(-0.0871688 0.996194 0)
(0 0 -1)
(0 1 0)
(-0 0 1)
(0 1 0)
(0 0 -1)
(0.0871458 0.996196 -0)
(0 0 1)
(0.0871458 0.996196 0)
(0.258879 0.96591 -0)
(0 0 -1)
(0 0 1)
(0.258879 0.96591 0)
(0 0 -1)
(0.422554 0.906338 -0)
(0 0 1)
(0.422554 0.906338 0)
(0.573947 0.818893 -0)
(0 0 -1)
(0 0 1)
(0.573947 0.818893 0)
(0 0 -1)
(0.706862 0.707351 -0)
(0 0 1)
(0.706862 0.707351 0)
(0.819119 0.573624 -0)
(0 0 -1)
(0.819119 0.573624 0)
(0.906299 0.422637 -0)
(0 0 1)
(0.906299 0.422637 0)
(0.966094 0.25819 -0)
(0 0 -1)
(0 0 1)
(0.966094 0.25819 0)
(-0 -0 -1)
(0.996122 0.0879869 -0)
(0 0 1)
(0.996122 0.0879869 0)
(0.996122 -0.0879869 0)
(0 0 -1)
(0 0 1)
(0.996122 -0.0879869 0)
(-0 0 -1)
(0.966094 -0.25819 0)
(0 -0 1)
(0.966094 -0.25819 0)
(0.906299 -0.422637 0)
(0 0 -1)
(0 0 1)
(0.906299 -0.422637 0)
(0.819119 -0.573624 0)
(0 0 -1)
(0 0 1)
(0.819119 -0.573624 0)
(0.706862 -0.707351 0)
(-0 0 -1)
(0 -0 1)
(0.706862 -0.707351 0)
(0 0 -1)
(0.573947 -0.818893 0)
(0 0 1)
(0.573947 -0.818893 0)
(0.422554 -0.906338 0)
(0 0 -1)
(0 0 1)
(0.422554 -0.906338 0)
(0 0 -1)
(0.258879 -0.96591 0)
(0 -0 1)
(0.258879 -0.96591 0)
(0.0871458 -0.996196 0)
(0 0 -1)
(0 0 1)
(0.0871458 -0.996196 0)
(0 0 -1)
(0 -1 0)
(0 0 1)
(0 -1 -0)
(0 0 -1)
)

// normal volume types

148
(
0
0
0
0
0
0
0
0
0
0
0
0
0
0
0
0
0
0
0
0
0
0
0
0
0
0
0
0
0
0
0
0
0
0
0
0
0
0
0
0
0
0
0
0
0
0
0
0
0
0
0
0
0
0
0
0
0
0
0
0
0
0
0
0
0
0
0
0
0
0
0
0
0
0
0
0
0
0
0
0
0
0
0
0
0
0
0
0
0
0
0
0
0
0
0
0
0
0
0
0
0
0
0
0
0
0
0
0
0
0
0
0
0
0
0
0
0
0
0
0
0
0
0
0
0
0
0
0
0
0
0
0
0
0
0
0
0
0
0
0
0
0
0
0
0
0
0
0
)

// normalDirections

96
(
2(1 -1)
2(1 -1)
2(1 -1)
2(1 -1)
2(1 -1)
2(1 -1)
2(1 -1)
2(1 -1)
2(1 -1)
2(1 -1)
2(1 -1)
2(1 -1)
2(1 -1)
2(1 -1)
2(1 -1)
2(1 -1)
2(1 -1)
2(1 -1)
2(1 -1)
2(1 -1)
2(1 -1)
2(1 -1)
2(1 -1)
2(1 -1)
2(1 -1)
2(1 -1)
2(1 -1)
2(1 -1)
2(1 -1)
2(1 -1)
2(1 -1)
2(1 -1)
2(1 -1)
2(1 -1)
2(1 -1)
2(1 -1)
2(1 -1)
2(1 -1)
2(1 -1)
2(1 -1)
2(1 -1)
2(1 -1)
2(1 -1)
2(1 -1)
2(1 -1)
2(1 -1)
2(1 -1)
2(1 -1)
2(1 -1)
2(1 -1)
2(1 -1)
2(1 -1)
2(1 -1)
2(1 -1)
2(1 -1)
2(1 -1)
2(1 -1)
2(1 -1)
2(1 -1)
2(1 -1)
2(1 -1)
2(1 -1)
2(1 -1)
2(1 -1)
2(1 -1)
2(1 -1)
2(1 -1)
2(1 -1)
2(1 -1)
2(1 -1)
2(1 -1)
2(1 -1)
2(1 -1)
2(1 -1)
2(1 -1)
2(1 -1)
2(1 -1)
2(1 -1)
2(1 -1)
2(1 -1)
2(1 -1)
2(1 -1)
2(1 -1)
2(1 -1)
2(1 -1)
2(1 -1)
2(1 -1)
2(1 -1)
2(1 -1)
2(1 -1)
2(1 -1)
2(1 -1)
2(1 -1)
2(1 -1)
2(1 -1)
2(1 -1)
)

// edgeNormals

96
(
2(0 1)
2(2 3)
2(4 5)
2(6 7)
2(6 8)
2(7 9)
2(10 11)
2(12 13)
2(14 15)
2(14 16)
2(15 13)
2(17 18)
2(19 20)
2(21 22)
2(21 18)
2(22 23)
2(24 25)
2(24 26)
2(25 27)
2(28 29)
2(30 31)
2(32 33)
2(32 34)
2(33 35)
2(36 37)
2(38 39)
2(40 41)
2(40 42)
2(41 43)
2(44 45)
2(44 46)
2(45 47)
2(48 49)
2(50 51)
2(52 53)
2(52 54)
2(53 55)
2(56 57)
2(58 59)
2(60 61)
2(60 62)
2(61 63)
2(64 65)
2(66 67)
2(68 69)
2(70 71)
2(72 73)
2(74 75)
2(76 77)
2(76 78)
2(77 79)
2(80 81)
2(82 83)
2(84 85)
2(84 86)
2(85 87)
2(88 89)
2(90 91)
2(92 93)
2(92 94)
2(93 91)
2(95 96)
2(95 94)
2(96 97)
2(98 99)
2(98 100)
2(99 101)
2(102 103)
2(104 105)
2(106 107)
2(106 108)
2(107 109)
2(110 111)
2(112 113)
2(114 115)
2(114 116)
2(115 117)
2(118 119)
2(118 120)
2(119 121)
2(122 123)
2(122 124)
2(123 125)
2(126 127)
2(128 129)
2(130 131)
2(130 132)
2(131 133)
2(134 135)
2(136 137)
2(138 139)
2(138 140)
2(139 141)
2(142 143)
2(144 145)
2(146 147)
)

// featurePointNormals

40
(
3(4 5 7)
3(6 7 8)
3(12 13 15)
3(14 15 16)
3(19 20 22)
3(21 22 18)
3(22 23 25)
3(24 25 26)
3(30 31 33)
3(32 33 34)
3(38 39 41)
3(40 41 42)
3(41 43 45)
3(44 45 46)
3(50 51 53)
3(52 53 54)
3(58 59 61)
3(60 61 62)
3(74 75 77)
3(76 77 78)
3(82 83 85)
3(84 85 86)
3(90 91 93)
3(92 93 94)
3(93 91 96)
3(95 96 94)
3(96 97 99)
3(98 99 100)
3(104 105 107)
3(106 107 108)
3(112 113 115)
3(114 115 116)
3(115 117 119)
3(118 119 120)
3(119 121 123)
3(122 123 124)
3(128 129 131)
3(130 131 132)
3(136 137 139)
3(138 139 140)
)

// featurePointEdges

40
(
3(3 5 2)
3(3 6 4)
3(8 10 7)
3(8 11 9)
3(13 15 12)
3(13 17 14)
3(16 18 15)
3(16 19 17)
3(21 23 20)
3(21 24 22)
3(26 28 25)
3(26 30 27)
3(29 31 28)
3(29 32 30)
3(34 36 33)
3(34 37 35)
3(39 41 38)
3(39 42 40)
3(48 50 47)
3(48 51 49)
3(53 55 52)
3(53 56 54)
3(58 60 57)
3(58 62 59)
3(61 63 60)
3(61 65 62)
3(64 66 63)
3(64 67 65)
3(69 71 68)
3(69 72 70)
3(74 76 73)
3(74 78 75)
3(77 79 76)
3(77 81 78)
3(80 82 79)
3(80 83 81)
3(85 87 84)
3(85 88 86)
3(90 92 89)
3(90 93 91)
)

// regionEdges
0()


// ************************************************************************* //
