/*--------------------------------*- C++ -*----------------------------------*\
| =========                 |                                                 |
| \\      /  F ield         | OpenFOAM: The Open Source CFD Toolbox           |
|  \\    /   O peration     | Version:  v1912                                 |
|   \\  /    A nd           | Website:  www.openfoam.com                      |
|    \\/     M anipulation  |                                                 |
\*---------------------------------------------------------------------------*/
FoamFile
{
    version     2.0;
    format      ascii;
    class       extendedFeatureEdgeMesh;
    location    "constant/extendedFeatureEdgeMesh";
    object      single_vane.extendedFeatureEdgeMesh;
}
// * * * * * * * * * * * * * * * * * * * * * * * * * * * * * * * * * * * * * //

// points

76
(
(0.349581 -0.0590885 1)
(0.349581 -0.0590885 -1)
(0.33 -0.0519615 1)
(0.33 -0.0519615 -1)
(0.314037 -0.0385673 1)
(0.314037 -0.0385673 -1)
(0.308038 -0.03 1)
(0.308038 -0.03 -1)
(0.303618 -0.0205212 1)
(0.303618 -0.0205212 -1)
(0.3 7.34788e-18 1)
(0.3 7.34788e-18 -1)
(0.303618 0.0205212 1)
(0.303618 0.0205212 -1)
(0.308038 0.03 1)
(0.308038 0.03 -1)
(0.314037 0.0385673 1)
(0.314037 0.0385673 -1)
(0.33 0.0519615 1)
(0.33 0.0519615 -1)
(0.349581 0.0590885 1)
(0.349581 0.0590885 -1)
(10.3986 0.0459627 1)
(10.3986 0.0459627 -1)
(10.406 0.0385673 1)
(10.406 0.0385673 -1)
(10.412 0.03 1)
(10.412 0.03 -1)
(10.4191 0.0104189 1)
(10.4191 0.0104189 -1)
(10.4191 -0.0104189 1)
(10.4191 -0.0104189 -1)
(10.412 -0.03 1)
(10.412 -0.03 -1)
(10.406 -0.0385673 1)
(10.406 -0.0385673 -1)
(10.3986 -0.0459627 1)
(10.3986 -0.0459627 -1)
(0.36 -0.06 1)
(0.36 -0.06 -1)
(0.339479 -0.0563816 1)
(0.339479 -0.0563816 -1)
(0.321433 -0.0459627 1)
(0.321433 -0.0459627 -1)
(0.300912 -0.0104189 1)
(0.300912 -0.0104189 -1)
(0.300912 0.0104189 1)
(0.300912 0.0104189 -1)
(0.321433 0.0459627 1)
(0.321433 0.0459627 -1)
(0.339479 0.0563816 1)
(0.339479 0.0563816 -1)
(0.36 0.06 1)
(0.36 0.06 -1)
(10.36 0.06 1)
(10.36 0.06 -1)
(10.3704 0.0590885 1)
(10.3704 0.0590885 -1)
(10.3805 0.0563816 1)
(10.3805 0.0563816 -1)
(10.39 0.0519615 1)
(10.39 0.0519615 -1)
(10.4164 0.0205212 1)
(10.4164 0.0205212 -1)
(10.42 -1.46958e-17 1)
(10.42 -1.46958e-17 -1)
(10.4164 -0.0205212 1)
(10.4164 -0.0205212 -1)
(10.39 -0.0519615 1)
(10.39 -0.0519615 -1)
(10.3805 -0.0563816 1)
(10.3805 -0.0563816 -1)
(10.3704 -0.0590885 1)
(10.3704 -0.0590885 -1)
(10.36 -0.06 1)
(10.36 -0.06 -1)
)

// edges

95
(
(38 0)
(0 1)
(1 39)
(0 40)
(41 1)
(40 2)
(2 3)
(3 41)
(2 42)
(43 3)
(42 4)
(4 5)
(5 43)
(4 6)
(6 7)
(7 5)
(6 8)
(8 9)
(9 7)
(8 44)
(45 9)
(44 10)
(10 11)
(11 45)
(10 46)
(47 11)
(46 12)
(12 13)
(13 47)
(12 14)
(14 15)
(15 13)
(14 16)
(16 17)
(17 15)
(16 48)
(49 17)
(48 18)
(18 19)
(19 49)
(18 50)
(51 19)
(50 20)
(20 21)
(21 51)
(20 52)
(53 21)
(52 54)
(55 53)
(54 56)
(57 55)
(56 58)
(59 57)
(58 60)
(61 59)
(60 22)
(22 23)
(23 61)
(22 24)
(24 25)
(25 23)
(24 26)
(26 27)
(27 25)
(26 62)
(63 27)
(62 28)
(28 29)
(29 63)
(28 64)
(65 29)
(64 30)
(30 31)
(31 65)
(30 66)
(67 31)
(66 32)
(32 33)
(33 67)
(32 34)
(34 35)
(35 33)
(34 36)
(36 37)
(37 35)
(36 68)
(69 37)
(68 70)
(71 69)
(70 72)
(73 71)
(72 74)
(75 73)
(74 38)
(39 75)
)

// concaveStart mixedStart nonFeatureStart
38 38 38
// internalStart flatStart openStart multipleStart
95 95 95 95
// normals

148
(
(-0.0871515 -0.996195 0)
(0 0 1)
(-0.0871515 -0.996195 0)
(-0.258826 -0.965924 0)
(0 0 -1)
(0 0 1)
(-0.258826 -0.965924 0)
(0 0 -1)
(-0.422617 -0.906309 0)
(0 0 1)
(-0.422617 -0.906309 0)
(-0.573584 -0.819147 0)
(0 0 -1)
(0 0 1)
(-0.573584 -0.819147 0)
(0 0 -1)
(-0.707077 -0.707136 0)
(-0.707077 -0.707136 0)
(-0.819147 -0.573583 0)
(0 0 -1)
(0 0 1)
(-0.819147 -0.573583 0)
(-0.90631 -0.422614 0)
(0 0 1)
(-0.90631 -0.422614 0)
(-0.965947 -0.25874 0)
(0 0 -1)
(0 0 1)
(-0.965947 -0.25874 0)
(0 0 -1)
(-0.996191 -0.087198 0)
(0 0 1)
(-0.996191 -0.087198 0)
(-0.996191 0.087198 0)
(0 0 -1)
(0 0 1)
(-0.996191 0.087198 0)
(0 0 -1)
(-0.965947 0.25874 0)
(0 0 1)
(-0.965947 0.25874 0)
(-0.90631 0.422614 0)
(0 0 -1)
(-0 0 1)
(-0.90631 0.422614 0)
(-0.819147 0.573583 0)
(0 0 -1)
(-0 0 1)
(-0.819147 0.573583 0)
(-0.707077 0.707136 0)
(0 0 -1)
(0 0 1)
(-0.707077 0.707136 0)
(0 0 -1)
(-0.573584 0.819147 0)
(0 0 1)
(-0.573584 0.819147 0)
(-0.422617 0.906309 0)
(0 0 -1)
(0 0 1)
(-0.422617 0.906309 0)
(0 0 -1)
(-0.258826 0.965924 0)
(0 0 1)
(-0.258826 0.965924 0)
(-0.0871515 0.996195 0)
(0 0 -1)
(0 0 1)
(-0.0871515 0.996195 0)
(0 0 -1)
(0 1 0)
(-0 0 1)
(0 1 0)
(0 0 -1)
(0.0873031 0.996182 -0)
(0 0 1)
(0.0873031 0.996182 0)
(0 0 -1)
(0.258888 0.965907 -0)
(0 0 1)
(0.258888 0.965907 0)
(0 0 -1)
(0.42183 0.906675 -0)
(0 0 1)
(0.42183 0.906675 0)
(0 0 -1)
(0.572137 0.820158 -0)
(0 0 1)
(0.572137 0.820158 0)
(0.706862 0.707351 -0)
(0 0 -1)
(0 0 1)
(0.706862 0.707351 0)
(0.819122 0.57362 -0)
(0 0 -1)
(0.819122 0.57362 0)
(0.907032 0.421063 -0)
(0 0 1)
(0.907032 0.421063 0)
(0 0 -1)
(0.966094 0.25819 -0)
(0 0 1)
(0.966094 0.25819 0)
(0.996288 0.0860865 -0)
(-0 -0 -1)
(0 0 1)
(0.996288 0.0860865 0)
(0 0 -1)
(0.996288 -0.0860865 0)
(0 0 1)
(0.996288 -0.0860865 0)
(0.966094 -0.25819 0)
(-0 0 -1)
(0 -0 1)
(0.966094 -0.25819 0)
(0 0 -1)
(0.907032 -0.421063 0)
(0 0 1)
(0.907032 -0.421063 0)
(0.819122 -0.57362 0)
(0 0 -1)
(0 0 1)
(0.819122 -0.57362 0)
(0.706862 -0.707351 0)
(-0 0 -1)
(0 -0 1)
(0.706862 -0.707351 0)
(0.572137 -0.820158 0)
(0 0 -1)
(0 0 1)
(0.572137 -0.820158 0)
(0 0 -1)
(0.42183 -0.906675 0)
(0 0 1)
(0.42183 -0.906675 0)
(0 0 -1)
(0.258888 -0.965907 0)
(0 -0 1)
(0.258888 -0.965907 0)
(0 0 -1)
(0.0873031 -0.996182 0)
(0 0 1)
(0.0873031 -0.996182 0)
(0 0 -1)
(0 -1 0)
(0 0 1)
(0 -1 -0)
(0 0 -1)
)

// normal volume types

148
(
0
0
0
0
0
0
0
0
0
0
0
0
0
0
0
0
0
0
0
0
0
0
0
0
0
0
0
0
0
0
0
0
0
0
0
0
0
0
0
0
0
0
0
0
0
0
0
0
0
0
0
0
0
0
0
0
0
0
0
0
0
0
0
0
0
0
0
0
0
0
0
0
0
0
0
0
0
0
0
0
0
0
0
0
0
0
0
0
0
0
0
0
0
0
0
0
0
0
0
0
0
0
0
0
0
0
0
0
0
0
0
0
0
0
0
0
0
0
0
0
0
0
0
0
0
0
0
0
0
0
0
0
0
0
0
0
0
0
0
0
0
0
0
0
0
0
0
0
)

// normalDirections

95
(
2(1 -1)
2(1 -1)
2(1 -1)
2(1 -1)
2(1 -1)
2(1 -1)
2(1 -1)
2(1 -1)
2(1 -1)
2(1 -1)
2(1 -1)
2(1 -1)
2(1 -1)
2(1 -1)
2(1 -1)
2(1 -1)
2(1 -1)
2(1 -1)
2(1 -1)
2(1 -1)
2(1 -1)
2(1 -1)
2(1 -1)
2(1 -1)
2(1 -1)
2(1 -1)
2(1 -1)
2(1 -1)
2(1 -1)
2(1 -1)
2(1 -1)
2(1 -1)
2(1 -1)
2(1 -1)
2(1 -1)
2(1 -1)
2(1 -1)
2(1 -1)
2(1 -1)
2(1 -1)
2(1 -1)
2(1 -1)
2(1 -1)
2(1 -1)
2(1 -1)
2(1 -1)
2(1 -1)
2(1 -1)
2(1 -1)
2(1 -1)
2(1 -1)
2(1 -1)
2(1 -1)
2(1 -1)
2(1 -1)
2(1 -1)
2(1 -1)
2(1 -1)
2(1 -1)
2(1 -1)
2(1 -1)
2(1 -1)
2(1 -1)
2(1 -1)
2(1 -1)
2(1 -1)
2(1 -1)
2(1 -1)
2(1 -1)
2(1 -1)
2(1 -1)
2(1 -1)
2(1 -1)
2(1 -1)
2(1 -1)
2(1 -1)
2(1 -1)
2(1 -1)
2(1 -1)
2(1 -1)
2(1 -1)
2(1 -1)
2(1 -1)
2(1 -1)
2(1 -1)
2(1 -1)
2(1 -1)
2(1 -1)
2(1 -1)
2(1 -1)
2(1 -1)
2(1 -1)
2(1 -1)
2(1 -1)
2(1 -1)
)

// edgeNormals

95
(
2(0 1)
2(2 3)
2(2 4)
2(3 5)
2(6 7)
2(8 9)
2(10 11)
2(10 12)
2(11 13)
2(14 15)
2(16 13)
2(17 18)
2(17 19)
2(18 20)
2(21 22)
2(21 19)
2(22 23)
2(24 25)
2(24 26)
2(25 27)
2(28 29)
2(30 31)
2(32 33)
2(32 34)
2(33 35)
2(36 37)
2(38 39)
2(40 41)
2(40 42)
2(41 43)
2(44 45)
2(44 46)
2(45 47)
2(48 49)
2(48 50)
2(49 51)
2(52 53)
2(54 55)
2(56 57)
2(56 58)
2(57 59)
2(60 61)
2(62 63)
2(64 65)
2(64 66)
2(65 67)
2(68 69)
2(70 71)
2(72 73)
2(74 75)
2(76 77)
2(78 79)
2(80 81)
2(82 83)
2(84 85)
2(86 87)
2(88 89)
2(88 90)
2(89 91)
2(92 93)
2(92 94)
2(93 91)
2(95 96)
2(95 94)
2(96 97)
2(98 99)
2(100 101)
2(102 103)
2(102 104)
2(103 105)
2(106 107)
2(108 109)
2(110 111)
2(110 112)
2(111 113)
2(114 115)
2(116 117)
2(118 119)
2(118 120)
2(119 121)
2(122 123)
2(122 124)
2(123 125)
2(126 127)
2(126 128)
2(127 129)
2(130 131)
2(132 133)
2(134 135)
2(136 137)
2(138 139)
2(140 141)
2(142 143)
2(144 145)
2(146 147)
)

// featurePointNormals

38
(
3(0 1 3)
3(2 3 4)
3(8 9 11)
3(10 11 12)
3(16 13 18)
3(17 18 19)
3(18 20 22)
3(21 22 19)
3(22 23 25)
3(24 25 26)
3(30 31 33)
3(32 33 34)
3(38 39 41)
3(40 41 42)
3(41 43 45)
3(44 45 46)
3(45 47 49)
3(48 49 50)
3(54 55 57)
3(56 57 58)
3(62 63 65)
3(64 65 66)
3(86 87 89)
3(88 89 90)
3(89 91 93)
3(92 93 94)
3(93 91 96)
3(95 96 94)
3(100 101 103)
3(102 103 104)
3(108 109 111)
3(110 111 112)
3(116 117 119)
3(118 119 120)
3(119 121 123)
3(122 123 124)
3(123 125 127)
3(126 127 128)
)

// featurePointEdges

38
(
3(1 3 0)
3(1 4 2)
3(6 8 5)
3(6 9 7)
3(11 13 10)
3(11 15 12)
3(14 16 13)
3(14 18 15)
3(17 19 16)
3(17 20 18)
3(22 24 21)
3(22 25 23)
3(27 29 26)
3(27 31 28)
3(30 32 29)
3(30 34 31)
3(33 35 32)
3(33 36 34)
3(38 40 37)
3(38 41 39)
3(43 45 42)
3(43 46 44)
3(56 58 55)
3(56 60 57)
3(59 61 58)
3(59 63 60)
3(62 64 61)
3(62 65 63)
3(67 69 66)
3(67 70 68)
3(72 74 71)
3(72 75 73)
3(77 79 76)
3(77 81 78)
3(80 82 79)
3(80 84 81)
3(83 85 82)
3(83 86 84)
)

// regionEdges
0()


// ************************************************************************* //
