/*--------------------------------*- C++ -*----------------------------------*\
| =========                 |                                                 |
| \\      /  F ield         | OpenFOAM: The Open Source CFD Toolbox           |
|  \\    /   O peration     | Version:  v1912                                 |
|   \\  /    A nd           | Website:  www.openfoam.com                      |
|    \\/     M anipulation  |                                                 |
\*---------------------------------------------------------------------------*/
FoamFile
{
    version     2.0;
    format      ascii;
    class       extendedFeatureEdgeMesh;
    location    "constant/extendedFeatureEdgeMesh";
    object      single_vanel.extendedFeatureEdgeMesh;
}
// * * * * * * * * * * * * * * * * * * * * * * * * * * * * * * * * * * * * * //

// points

76
(
(0.149938 -0.373611 1)
(0.149938 -0.373611 -1)
(0.146733 -0.369479 1)
(0.146733 -0.369479 -1)
(0.142695 -0.359874 1)
(0.142695 -0.359874 -1)
(0.143292 -0.344356 1)
(0.143292 -0.344356 -1)
(0.148054 -0.335089 1)
(0.148054 -0.335089 -1)
(0.160324 -0.325572 1)
(0.160324 -0.325572 -1)
(0.170484 -0.323263 1)
(0.170484 -0.323263 -1)
(4.96648 -1.80787 1)
(4.96648 -1.80787 -1)
(4.97035 -1.81138 1)
(4.97035 -1.81138 -1)
(4.976 -1.82014 1)
(4.976 -1.82014 -1)
(4.9776 -1.82512 1)
(4.9776 -1.82512 -1)
(4.97831 -1.8303 1)
(4.97831 -1.8303 -1)
(4.977 -1.84064 1)
(4.977 -1.84064 -1)
(4.97224 -1.84991 1)
(4.97224 -1.84991 -1)
(4.95499 -1.86102 1)
(4.95499 -1.86102 -1)
(0.163079 -0.381886 1)
(0.158238 -0.37991 1)
(0.158238 -0.37991 -1)
(0.163079 -0.381886 -1)
(0.153812 -0.377123 1)
(0.153812 -0.377123 -1)
(0.144295 -0.364853 1)
(0.144295 -0.364853 -1)
(0.141986 -0.354693 1)
(0.141986 -0.354693 -1)
(0.142187 -0.349468 1)
(0.142187 -0.349468 -1)
(0.145268 -0.339515 1)
(0.145268 -0.339515 -1)
(0.151567 -0.331216 1)
(0.151567 -0.331216 -1)
(0.155699 -0.328011 1)
(0.155699 -0.328011 -1)
(0.165304 -0.323973 1)
(0.165304 -0.323973 -1)
(0.175711 -0.323464 1)
(0.175711 -0.323464 -1)
(0.180821 -0.324569 1)
(0.180821 -0.324569 -1)
(4.95721 -1.80311 1)
(4.95721 -1.80311 -1)
(4.96206 -1.80509 1)
(4.96206 -1.80509 -1)
(4.97356 -1.81552 1)
(4.97356 -1.81552 -1)
(4.9781 -1.83553 1)
(4.9781 -1.83553 -1)
(4.97502 -1.84548 1)
(4.97502 -1.84548 -1)
(4.96872 -1.85378 1)
(4.96872 -1.85378 -1)
(4.96459 -1.85698 1)
(4.96459 -1.85698 -1)
(4.95996 -1.85942 1)
(4.95996 -1.85942 -1)
(4.94981 -1.86173 1)
(4.94981 -1.86173 -1)
(4.94458 -1.86153 1)
(4.94458 -1.86153 -1)
(4.93947 -1.86043 1)
(4.93947 -1.86043 -1)
)

// edges

91
(
(30 31)
(32 33)
(31 34)
(35 32)
(34 0)
(0 1)
(1 35)
(0 2)
(2 3)
(3 1)
(2 36)
(37 3)
(36 4)
(4 5)
(5 37)
(4 38)
(39 5)
(38 40)
(41 39)
(40 6)
(6 7)
(7 41)
(6 42)
(43 7)
(42 8)
(8 9)
(9 43)
(8 44)
(45 9)
(44 46)
(47 45)
(46 10)
(10 11)
(11 47)
(10 48)
(49 11)
(48 12)
(12 13)
(13 49)
(12 50)
(51 13)
(50 52)
(53 51)
(52 54)
(55 53)
(54 56)
(57 55)
(56 14)
(14 15)
(15 57)
(14 16)
(16 17)
(17 15)
(16 58)
(59 17)
(58 18)
(18 19)
(19 59)
(18 20)
(20 21)
(21 19)
(20 22)
(22 23)
(23 21)
(22 60)
(61 23)
(60 24)
(24 25)
(25 61)
(24 62)
(63 25)
(62 26)
(26 27)
(27 63)
(26 64)
(65 27)
(64 66)
(67 65)
(66 68)
(69 67)
(68 28)
(28 29)
(29 69)
(28 70)
(71 29)
(70 72)
(73 71)
(72 74)
(75 73)
(74 30)
(33 75)
)

// concaveStart mixedStart nonFeatureStart
30 30 30
// internalStart flatStart openStart multipleStart
91 91 91 91
// normals

148
(
(-0.377913 -0.925841 0)
(0 0 1)
(-0.377913 -0.925841 0)
(0 0 -1)
(-0.532849 -0.84621 0)
(0 0 1)
(-0.532849 -0.84621 0)
(0 0 -1)
(-0.671643 -0.740875 0)
(0 0 1)
(-0.671643 -0.740875 0)
(-0.790165 -0.612894 0)
(0 0 -1)
(0 0 1)
(-0.790165 -0.612894 0)
(-0.884662 -0.466234 0)
(0 0 -1)
(-0.884662 -0.466234 0)
(0 0 -1)
(-0.952049 -0.305944 0)
(0 0 1)
(-0.952049 -0.305944 0)
(-0.990766 -0.135582 0)
(0 0 1)
(-0.990766 -0.135582 0)
(0 0 -1)
(-0.999261 0.0384408 0)
(0 0 1)
(-0.999261 0.0384408 0)
(0 -0 -1)
(-0.977426 0.211278 0)
(0 0 1)
(-0.977426 0.211278 0)
(-0.925842 0.37791 0)
(0 -0 -1)
(0 0 1)
(-0.925842 0.37791 0)
(0 0 -1)
(-0.846296 0.532713 0)
(0 0 1)
(-0.846296 0.532713 0)
(-0.740692 0.671844 0)
(0 0 -1)
(-0 0 1)
(-0.740692 0.671844 0)
(0 0 -1)
(-0.612894 0.790165 0)
(-0 0 1)
(-0.612894 0.790165 0)
(0 0 -1)
(-0.466462 0.884541 0)
(0 0 1)
(-0.466462 0.884541 0)
(-0.305715 0.952123 0)
(0 0 -1)
(0 -0 1)
(-0.305715 0.952123 0)
(0 0 -1)
(-0.135798 0.990737 0)
(0 0 1)
(-0.135798 0.990737 0)
(0.038429 0.999261 -0)
(0 0 -1)
(0 0 1)
(0.038429 0.999261 0)
(0 -0 -1)
(0.211354 0.97741 -0)
(0 0 1)
(0.211354 0.97741 0)
(0 0 -1)
(0.295708 0.955278 0)
(0 0 1)
(0.295708 0.955278 0)
(0 0 -1)
(0.377961 0.925821 -0)
(0 0 1)
(0.377961 0.925821 0)
(0 0 -1)
(0.532435 0.846471 -0)
(0 0 1)
(0.532435 0.846471 0)
(0.671814 0.74072 -0)
(0 0 -1)
(0 0 1)
(0.671814 0.74072 0)
(0.790272 0.612757 -0)
(0 0 -1)
(0 0 1)
(0.790272 0.612757 0)
(0 0 -1)
(0.884253 0.467008 -0)
(0 0 1)
(0.884253 0.467008 0)
(0.952053 0.305933 -0)
(0 0 -1)
(0.952053 0.305933 0)
(0.990737 0.135798 -0)
(0 0 1)
(0.990737 0.135798 0)
(0.999193 -0.0401745 0)
(0 0 -1)
(0 -0 1)
(0.999193 -0.0401745 0)
(-0 0 -1)
(0.977621 -0.210372 0)
(0 0 1)
(0.977621 -0.210372 0)
(0.925527 -0.378682 0)
(0 0 -1)
(0 0 1)
(0.925527 -0.378682 0)
(-0 0 -1)
(0.847037 -0.531535 0)
(0 -0 1)
(0.847037 -0.531535 0)
(0.739767 -0.672863 0)
(0 0 -1)
(0 0 1)
(0.739767 -0.672863 0)
(0 0 -1)
(0.612485 -0.790482 0)
(0 0 1)
(0.612485 -0.790482 0)
(-0 0 -1)
(0.466208 -0.884675 0)
(0 -0 1)
(0.466208 -0.884675 0)
(0 0 -1)
(0.306444 -0.951889 0)
(0 0 1)
(0.306444 -0.951889 0)
(0.135801 -0.990736 0)
(0 -0 -1)
(0 0 1)
(0.135801 -0.990736 0)
(0 0 -1)
(-0.0382197 -0.999269 0)
(-0 0 1)
(-0.0382197 -0.999269 0)
(0 0 -1)
(-0.210423 -0.97761 0)
(0 0 1)
(-0.210423 -0.97761 0)
(0 0 -1)
(-0.295709 -0.955278 -0)
(0 0 1)
(-0.295709 -0.955278 -0)
(0 0 -1)
)

// normal volume types

148
(
0
0
0
0
0
0
0
0
0
0
0
0
0
0
0
0
0
0
0
0
0
0
0
0
0
0
0
0
0
0
0
0
0
0
0
0
0
0
0
0
0
0
0
0
0
0
0
0
0
0
0
0
0
0
0
0
0
0
0
0
0
0
0
0
0
0
0
0
0
0
0
0
0
0
0
0
0
0
0
0
0
0
0
0
0
0
0
0
0
0
0
0
0
0
0
0
0
0
0
0
0
0
0
0
0
0
0
0
0
0
0
0
0
0
0
0
0
0
0
0
0
0
0
0
0
0
0
0
0
0
0
0
0
0
0
0
0
0
0
0
0
0
0
0
0
0
0
0
)

// normalDirections

91
(
2(1 -1)
2(1 -1)
2(1 -1)
2(1 -1)
2(1 -1)
2(1 -1)
2(1 -1)
2(1 -1)
2(1 -1)
2(1 -1)
2(1 -1)
2(1 -1)
2(1 -1)
2(1 -1)
2(1 -1)
2(1 -1)
2(1 -1)
2(1 -1)
2(1 -1)
2(1 -1)
2(1 -1)
2(1 -1)
2(1 -1)
2(1 -1)
2(1 -1)
2(1 -1)
2(1 -1)
2(1 -1)
2(1 -1)
2(1 -1)
2(1 -1)
2(1 -1)
2(1 -1)
2(1 -1)
2(1 -1)
2(1 -1)
2(1 -1)
2(1 -1)
2(1 -1)
2(1 -1)
2(1 -1)
2(1 -1)
2(1 -1)
2(1 -1)
2(1 -1)
2(1 -1)
2(1 -1)
2(1 -1)
2(1 -1)
2(1 -1)
2(1 -1)
2(1 -1)
2(1 -1)
2(1 -1)
2(1 -1)
2(1 -1)
2(1 -1)
2(1 -1)
2(1 -1)
2(1 -1)
2(1 -1)
2(1 -1)
2(1 -1)
2(1 -1)
2(1 -1)
2(1 -1)
2(1 -1)
2(1 -1)
2(1 -1)
2(1 -1)
2(1 -1)
2(1 -1)
2(1 -1)
2(1 -1)
2(1 -1)
2(1 -1)
2(1 -1)
2(1 -1)
2(1 -1)
2(1 -1)
2(1 -1)
2(1 -1)
2(1 -1)
2(1 -1)
2(1 -1)
2(1 -1)
2(1 -1)
2(1 -1)
2(1 -1)
2(1 -1)
2(1 -1)
)

// edgeNormals

91
(
2(0 1)
2(2 3)
2(4 5)
2(6 7)
2(8 9)
2(10 11)
2(10 12)
2(11 13)
2(14 15)
2(14 16)
2(15 13)
2(17 18)
2(19 20)
2(21 22)
2(21 18)
2(22 23)
2(24 25)
2(26 27)
2(28 29)
2(30 31)
2(32 33)
2(32 34)
2(33 35)
2(36 37)
2(38 39)
2(40 41)
2(40 42)
2(41 43)
2(44 45)
2(46 47)
2(48 49)
2(50 51)
2(52 53)
2(52 54)
2(53 55)
2(56 57)
2(58 59)
2(60 61)
2(60 62)
2(61 63)
2(64 65)
2(66 67)
2(68 69)
2(70 71)
2(72 73)
2(74 75)
2(76 77)
2(78 79)
2(80 81)
2(80 82)
2(81 83)
2(84 85)
2(84 86)
2(85 87)
2(88 89)
2(90 91)
2(92 93)
2(92 94)
2(93 91)
2(95 96)
2(95 94)
2(96 97)
2(98 99)
2(98 100)
2(99 101)
2(102 103)
2(104 105)
2(106 107)
2(106 108)
2(107 109)
2(110 111)
2(112 113)
2(114 115)
2(114 116)
2(115 117)
2(118 119)
2(120 121)
2(122 123)
2(124 125)
2(126 127)
2(128 129)
2(130 131)
2(130 132)
2(131 133)
2(134 135)
2(136 137)
2(138 139)
2(140 141)
2(142 143)
2(144 145)
2(146 147)
)

// featurePointNormals

30
(
3(8 9 11)
3(10 11 12)
3(11 13 15)
3(14 15 16)
3(19 20 22)
3(21 22 18)
3(30 31 33)
3(32 33 34)
3(38 39 41)
3(40 41 42)
3(50 51 53)
3(52 53 54)
3(58 59 61)
3(60 61 62)
3(78 79 81)
3(80 81 82)
3(81 83 85)
3(84 85 86)
3(90 91 93)
3(92 93 94)
3(93 91 96)
3(95 96 94)
3(96 97 99)
3(98 99 100)
3(104 105 107)
3(106 107 108)
3(112 113 115)
3(114 115 116)
3(128 129 131)
3(130 131 132)
)

// featurePointEdges

30
(
3(5 7 4)
3(5 9 6)
3(8 10 7)
3(8 11 9)
3(13 15 12)
3(13 16 14)
3(20 22 19)
3(20 23 21)
3(25 27 24)
3(25 28 26)
3(32 34 31)
3(32 35 33)
3(37 39 36)
3(37 40 38)
3(48 50 47)
3(48 52 49)
3(51 53 50)
3(51 54 52)
3(56 58 55)
3(56 60 57)
3(59 61 58)
3(59 63 60)
3(62 64 61)
3(62 65 63)
3(67 69 66)
3(67 70 68)
3(72 74 71)
3(72 75 73)
3(81 83 80)
3(81 84 82)
)

// regionEdges
0()


// ************************************************************************* //
