/*--------------------------------*- C++ -*----------------------------------*\
| =========                 |                                                 |
| \\      /  F ield         | OpenFOAM: The Open Source CFD Toolbox           |
|  \\    /   O peration     | Version:  v1912                                 |
|   \\  /    A nd           | Website:  www.openfoam.com                      |
|    \\/     M anipulation  |                                                 |
\*---------------------------------------------------------------------------*/
FoamFile
{
    version     2.0;
    format      ascii;
    class       extendedFeatureEdgeMesh;
    location    "constant/extendedFeatureEdgeMesh";
    object      single_vanel.extendedFeatureEdgeMesh;
}
// * * * * * * * * * * * * * * * * * * * * * * * * * * * * * * * * * * * * * //

// points

76
(
(0.113062 -0.384183 1)
(0.113062 -0.384183 -1)
(0.101263 -0.371442 1)
(0.101263 -0.371442 -1)
(0.0945343 -0.355434 1)
(0.0945343 -0.355434 -1)
(0.093686 -0.338089 1)
(0.093686 -0.338089 -1)
(0.0988209 -0.321501 1)
(0.0988209 -0.321501 -1)
(0.103465 -0.314126 1)
(0.103465 -0.314126 -1)
(0.116206 -0.302328 1)
(0.116206 -0.302328 -1)
(0.123916 -0.298263 1)
(0.123916 -0.298263 -1)
(0.149558 -0.29475 1)
(0.149558 -0.29475 -1)
(4.95637 -1.78892 1)
(4.95637 -1.78892 -1)
(4.96578 -1.80352 1)
(4.96578 -1.80352 -1)
(4.96929 -1.82916 1)
(4.96929 -1.82916 -1)
(4.96745 -1.83768 1)
(4.96745 -1.83768 -1)
(4.95951 -1.85313 1)
(4.95951 -1.85313 -1)
(4.95366 -1.85958 1)
(4.95366 -1.85958 -1)
(4.93906 -1.86899 1)
(4.93906 -1.86899 -1)
(4.92213 -1.87284 1)
(4.92213 -1.87284 -1)
(0.128506 -0.39212 1)
(0.120437 -0.388827 1)
(0.120437 -0.388827 -1)
(0.128506 -0.39212 -1)
(0.106605 -0.378328 1)
(0.106605 -0.378328 -1)
(0.0971986 -0.363732 1)
(0.0971986 -0.363732 -1)
(0.0933515 -0.346799 1)
(0.0933515 -0.346799 -1)
(0.0955278 -0.329571 1)
(0.0955278 -0.329571 -1)
(0.10932 -0.30767 1)
(0.10932 -0.30767 -1)
(0.132214 -0.295599 1)
(0.132214 -0.295599 -1)
(0.140849 -0.294416 1)
(0.140849 -0.294416 -1)
(0.158077 -0.296592 1)
(0.158077 -0.296592 -1)
(4.93447 -1.77513 1)
(4.93447 -1.77513 -1)
(4.94254 -1.77843 1)
(4.94254 -1.77843 -1)
(4.94991 -1.78307 1)
(4.94991 -1.78307 -1)
(4.96171 -1.79581 1)
(4.96171 -1.79581 -1)
(4.96844 -1.81182 1)
(4.96844 -1.81182 -1)
(4.96962 -1.82045 1)
(4.96962 -1.82045 -1)
(4.96415 -1.84575 1)
(4.96415 -1.84575 -1)
(4.94677 -1.86492 1)
(4.94677 -1.86492 -1)
(4.93076 -1.87165 1)
(4.93076 -1.87165 -1)
(4.91342 -1.8725 1)
(4.91342 -1.8725 -1)
(4.9049 -1.87066 1)
(4.9049 -1.87066 -1)
)

// edges

93
(
(34 35)
(36 37)
(35 0)
(0 1)
(1 36)
(0 38)
(39 1)
(38 2)
(2 3)
(3 39)
(2 40)
(41 3)
(40 4)
(4 5)
(5 41)
(4 42)
(43 5)
(42 6)
(6 7)
(7 43)
(6 44)
(45 7)
(44 8)
(8 9)
(9 45)
(8 10)
(10 11)
(11 9)
(10 46)
(47 11)
(46 12)
(12 13)
(13 47)
(12 14)
(14 15)
(15 13)
(14 48)
(49 15)
(48 50)
(51 49)
(50 16)
(16 17)
(17 51)
(16 52)
(53 17)
(52 54)
(55 53)
(54 56)
(57 55)
(56 58)
(59 57)
(58 18)
(18 19)
(19 59)
(18 60)
(61 19)
(60 20)
(20 21)
(21 61)
(20 62)
(63 21)
(62 64)
(65 63)
(64 22)
(22 23)
(23 65)
(22 24)
(24 25)
(25 23)
(24 66)
(67 25)
(66 26)
(26 27)
(27 67)
(26 28)
(28 29)
(29 27)
(28 68)
(69 29)
(68 30)
(30 31)
(31 69)
(30 70)
(71 31)
(70 32)
(32 33)
(33 71)
(32 72)
(73 33)
(72 74)
(75 73)
(74 34)
(37 75)
)

// concaveStart mixedStart nonFeatureStart
34 34 34
// internalStart flatStart openStart multipleStart
93 93 93 93
// normals

148
(
(-0.377852 -0.925866 0)
(0 0 1)
(-0.377852 -0.925866 0)
(0 0 -1)
(-0.532853 -0.846208 0)
(0 0 1)
(-0.532853 -0.846208 0)
(-0.67173 -0.740796 0)
(0 0 -1)
(-0.67173 -0.740796 0)
(0 0 -1)
(-0.790118 -0.612955 0)
(0 0 1)
(-0.790118 -0.612955 0)
(-0.88461 -0.466332 0)
(0 0 -1)
(0 0 1)
(-0.88461 -0.466332 0)
(-0.952126 -0.305706 0)
(0 0 1)
(-0.952126 -0.305706 0)
(-0.990749 -0.13571 0)
(0 0 -1)
(0 0 1)
(-0.990749 -0.13571 0)
(0 0 -1)
(-0.999263 0.038376 0)
(0 0 1)
(-0.999263 0.038376 0)
(-0.977412 0.211341 0)
(0 0 -1)
(0 0 1)
(-0.977412 0.211341 0)
(0 0 -1)
(-0.925879 0.37782 0)
(0 0 1)
(-0.925879 0.37782 0)
(-0.846202 0.532862 0)
(0 0 -1)
(0 0 1)
(-0.846202 0.532862 0)
(-0.740745 0.671786 0)
(0 0 -1)
(0 0 1)
(-0.740745 0.671786 0)
(0 0 -1)
(-0.612956 0.790117 0)
(0 0 1)
(-0.612956 0.790117 0)
(-0.466383 0.884583 0)
(0 0 -1)
(0 0 1)
(-0.466383 0.884583 0)
(-0.305675 0.952136 0)
(0 0 -1)
(0 -0 1)
(-0.305675 0.952136 0)
(0 0 -1)
(-0.135733 0.990745 0)
(0 0 1)
(-0.135733 0.990745 0)
(0 -0 -1)
(0.0383223 0.999265 -0)
(0 0 1)
(0.0383223 0.999265 0)
(0.211338 0.977413 -0)
(0 0 -1)
(0 0 1)
(0.211338 0.977413 0)
(0 0 -1)
(0.295708 0.955279 0)
(-0 0 1)
(0.295708 0.955279 0)
(0 0 -1)
(0.378494 0.925604 -0)
(0 0 1)
(0.378494 0.925604 0)
(0 0 -1)
(0.532782 0.846253 -0)
(0 0 1)
(0.532782 0.846253 0)
(0 0 -1)
(0.671265 0.741217 -0)
(0 0 1)
(0.671265 0.741217 0)
(0.790393 0.6126 -0)
(0 -0 -1)
(0 0 1)
(0.790393 0.6126 0)
(0 0 -1)
(0.884354 0.466817 -0)
(0 0 1)
(0.884354 0.466817 0)
(0.952282 0.305218 -0)
(0 0 -1)
(0 0 1)
(0.952282 0.305218 0)
(0 -0 -1)
(0.990778 0.135492 -0)
(0 0 1)
(0.990778 0.135492 0)
(0 -0 -1)
(0.999281 -0.0379115 0)
(0 0 1)
(0.999281 -0.0379115 0)
(0.977474 -0.211056 0)
(0 0 -1)
(0 0 1)
(0.977474 -0.211056 0)
(0.925594 -0.378518 0)
(0 0 -1)
(0 -0 1)
(0.925594 -0.378518 0)
(0 0 -1)
(0.846572 -0.532273 0)
(0 0 1)
(0.846572 -0.532273 0)
(0.740731 -0.671801 0)
(0 0 -1)
(0 0 1)
(0.740731 -0.671801 0)
(0.612598 -0.790395 0)
(0 0 -1)
(0 0 1)
(0.612598 -0.790395 0)
(0 0 -1)
(0.466828 -0.884348 0)
(0 0 1)
(0.466828 -0.884348 0)
(0.305186 -0.952293 0)
(0 0 -1)
(0 0 1)
(0.305186 -0.952293 0)
(0 0 -1)
(0.136609 -0.990625 0)
(0 -0 1)
(0.136609 -0.990625 0)
(-0.0390182 -0.999238 0)
(0 0 -1)
(-0.0390182 -0.999238 0)
(-0.211092 -0.977466 0)
(0 -0 1)
(-0.211092 -0.977466 0)
(0 0 -1)
(-0.295708 -0.955278 -0)
(0 -0 1)
(-0.295708 -0.955278 -0)
(0 0 -1)
)

// normal volume types

148
(
0
0
0
0
0
0
0
0
0
0
0
0
0
0
0
0
0
0
0
0
0
0
0
0
0
0
0
0
0
0
0
0
0
0
0
0
0
0
0
0
0
0
0
0
0
0
0
0
0
0
0
0
0
0
0
0
0
0
0
0
0
0
0
0
0
0
0
0
0
0
0
0
0
0
0
0
0
0
0
0
0
0
0
0
0
0
0
0
0
0
0
0
0
0
0
0
0
0
0
0
0
0
0
0
0
0
0
0
0
0
0
0
0
0
0
0
0
0
0
0
0
0
0
0
0
0
0
0
0
0
0
0
0
0
0
0
0
0
0
0
0
0
0
0
0
0
0
0
)

// normalDirections

93
(
2(1 -1)
2(1 -1)
2(1 -1)
2(1 -1)
2(1 -1)
2(1 -1)
2(1 -1)
2(1 -1)
2(1 -1)
2(1 -1)
2(1 -1)
2(1 -1)
2(1 -1)
2(1 -1)
2(1 -1)
2(1 -1)
2(1 -1)
2(1 -1)
2(1 -1)
2(1 -1)
2(1 -1)
2(1 -1)
2(1 -1)
2(1 -1)
2(1 -1)
2(1 -1)
2(1 -1)
2(1 -1)
2(1 -1)
2(1 -1)
2(1 -1)
2(1 -1)
2(1 -1)
2(1 -1)
2(1 -1)
2(1 -1)
2(1 -1)
2(1 -1)
2(1 -1)
2(1 -1)
2(1 -1)
2(1 -1)
2(1 -1)
2(1 -1)
2(1 -1)
2(1 -1)
2(1 -1)
2(1 -1)
2(1 -1)
2(1 -1)
2(1 -1)
2(1 -1)
2(1 -1)
2(1 -1)
2(1 -1)
2(1 -1)
2(1 -1)
2(1 -1)
2(1 -1)
2(1 -1)
2(1 -1)
2(1 -1)
2(1 -1)
2(1 -1)
2(1 -1)
2(1 -1)
2(1 -1)
2(1 -1)
2(1 -1)
2(1 -1)
2(1 -1)
2(1 -1)
2(1 -1)
2(1 -1)
2(1 -1)
2(1 -1)
2(1 -1)
2(1 -1)
2(1 -1)
2(1 -1)
2(1 -1)
2(1 -1)
2(1 -1)
2(1 -1)
2(1 -1)
2(1 -1)
2(1 -1)
2(1 -1)
2(1 -1)
2(1 -1)
2(1 -1)
2(1 -1)
2(1 -1)
)

// edgeNormals

93
(
2(0 1)
2(2 3)
2(4 5)
2(6 7)
2(6 8)
2(7 5)
2(9 10)
2(11 12)
2(13 14)
2(13 15)
2(14 16)
2(17 15)
2(18 19)
2(20 21)
2(20 22)
2(21 23)
2(24 25)
2(26 27)
2(28 29)
2(28 30)
2(29 31)
2(32 33)
2(34 35)
2(36 37)
2(36 38)
2(37 39)
2(40 41)
2(40 42)
2(41 43)
2(44 45)
2(46 47)
2(48 49)
2(48 50)
2(49 51)
2(52 53)
2(52 54)
2(53 55)
2(56 57)
2(58 59)
2(60 61)
2(62 63)
2(64 65)
2(64 66)
2(65 67)
2(68 69)
2(70 71)
2(72 73)
2(74 75)
2(76 77)
2(78 79)
2(80 81)
2(82 83)
2(84 85)
2(84 86)
2(85 87)
2(88 89)
2(90 91)
2(92 93)
2(92 94)
2(93 95)
2(96 97)
2(98 99)
2(100 101)
2(102 103)
2(104 105)
2(104 106)
2(105 107)
2(108 109)
2(108 110)
2(109 111)
2(112 113)
2(114 115)
2(116 117)
2(116 118)
2(117 119)
2(120 121)
2(120 122)
2(121 123)
2(124 125)
2(126 127)
2(128 129)
2(128 130)
2(129 131)
2(132 133)
2(134 135)
2(136 137)
2(136 138)
2(137 135)
2(139 138)
2(140 141)
2(142 143)
2(144 145)
2(146 147)
)

// featurePointNormals

34
(
3(4 5 7)
3(6 7 8)
3(11 12 14)
3(13 14 15)
3(18 19 21)
3(20 21 22)
3(26 27 29)
3(28 29 30)
3(34 35 37)
3(36 37 38)
3(37 39 41)
3(40 41 42)
3(46 47 49)
3(48 49 50)
3(49 51 53)
3(52 53 54)
3(62 63 65)
3(64 65 66)
3(82 83 85)
3(84 85 86)
3(90 91 93)
3(92 93 94)
3(102 103 105)
3(104 105 106)
3(105 107 109)
3(108 109 110)
3(114 115 117)
3(116 117 118)
3(117 119 121)
3(120 121 122)
3(126 127 129)
3(128 129 130)
3(134 135 137)
3(136 137 138)
)

// featurePointEdges

34
(
3(3 5 2)
3(3 6 4)
3(8 10 7)
3(8 11 9)
3(13 15 12)
3(13 16 14)
3(18 20 17)
3(18 21 19)
3(23 25 22)
3(23 27 24)
3(26 28 25)
3(26 29 27)
3(31 33 30)
3(31 35 32)
3(34 36 33)
3(34 37 35)
3(41 43 40)
3(41 44 42)
3(52 54 51)
3(52 55 53)
3(57 59 56)
3(57 60 58)
3(64 66 63)
3(64 68 65)
3(67 69 66)
3(67 70 68)
3(72 74 71)
3(72 76 73)
3(75 77 74)
3(75 78 76)
3(80 82 79)
3(80 83 81)
3(85 87 84)
3(85 88 86)
)

// regionEdges
0()


// ************************************************************************* //
