/*--------------------------------*- C++ -*----------------------------------*\
| =========                 |                                                 |
| \\      /  F ield         | OpenFOAM: The Open Source CFD Toolbox           |
|  \\    /   O peration     | Version:  v1912                                 |
|   \\  /    A nd           | Website:  www.openfoam.com                      |
|    \\/     M anipulation  |                                                 |
\*---------------------------------------------------------------------------*/
FoamFile
{
    version     2.0;
    format      ascii;
    class       polyBoundaryMesh;
    location    "constant/polyMesh";
    object      boundary;
}
// * * * * * * * * * * * * * * * * * * * * * * * * * * * * * * * * * * * * * //

10
(
    inlet
    {
        type            inlet;
        nFaces          50;
        startFace       7354;
        faces           ( ( 0 4 7 3 ) );
    }
    outlet
    {
        type            outlet;
        nFaces          0;
        startFace       7404;
        faces           ( ( 2 6 5 1 ) );
    }
    wall
    {
        type            wall;
        inGroups        1(wall);
        nFaces          51;
        startFace       7404;
    }
    front
    {
        type            empty;
        inGroups        1(empty);
        nFaces          3754;
        startFace       7455;
    }
    back
    {
        type            empty;
        inGroups        1(empty);
        nFaces          3754;
        startFace       11209;
    }
    vanem
    {
        type            wall;
        inGroups        1(wall);
        nFaces          198;
        startFace       14963;
    }
    vaneu
    {
        type            wall;
        inGroups        1(wall);
        nFaces          400;
        startFace       15161;
    }
    vanel
    {
        type            wall;
        inGroups        1(wall);
        nFaces          0;
        startFace       15561;
    }
    procBoundary2to0
    {
        type            processor;
        inGroups        1(processor);
        nFaces          5;
        startFace       15561;
        matchTolerance  0.0001;
        transform       unknown;
        myProcNo        2;
        neighbProcNo    0;
    }
    procBoundary2to3
    {
        type            processor;
        inGroups        1(processor);
        nFaces          58;
        startFace       15566;
        matchTolerance  0.0001;
        transform       unknown;
        myProcNo        2;
        neighbProcNo    3;
    }
)

// ************************************************************************* //
