/*--------------------------------*- C++ -*----------------------------------*\
| =========                 |                                                 |
| \\      /  F ield         | OpenFOAM: The Open Source CFD Toolbox           |
|  \\    /   O peration     | Version:  v1912                                 |
|   \\  /    A nd           | Website:  www.openfoam.com                      |
|    \\/     M anipulation  |                                                 |
\*---------------------------------------------------------------------------*/
FoamFile
{
    version     2.0;
    format      ascii;
    class       featureEdgeMesh;
    location    "constant/triSurface";
    object      twall.eMesh;
}
// * * * * * * * * * * * * * * * * * * * * * * * * * * * * * * * * * * * * * //


// points:

204
(
(-0.02 -0.05 1)
(-0.02 -0.06 1)
(0.01 -0.09 1)
(0.02 -0.09 1)
(-0.02 -0.06 -1)
(-0.02 -0.05 -1)
(0.02 -0.09 -1)
(0.01 -0.09 -1)
(-0.02 0.05 -1)
(-0.02 0.05 1)
(-0.02 0.06 -1)
(-0.02 0.06 1)
(0.12 -0.09 -1)
(0.12 -0.09 1)
(0.13 -0.09 -1)
(0.13 -0.09 1)
(0.00996195 -0.0691284 -1)
(0.01 -0.07 -1)
(0.01 -0.07 1)
(0.00996195 -0.0691284 1)
(0.00984808 -0.0682635 -1)
(0.00984808 -0.0682635 1)
(0.00965926 -0.0674118 -1)
(0.00965926 -0.0674118 1)
(0.00939693 -0.0665798 -1)
(0.00939693 -0.0665798 1)
(0.00906308 -0.0657738 -1)
(0.00906308 -0.0657738 1)
(0.00866025 -0.065 -1)
(0.00866025 -0.065 1)
(0.00819152 -0.0642642 -1)
(0.00819152 -0.0642642 1)
(0.00766044 -0.0635721 -1)
(0.00766044 -0.0635721 1)
(0.00707107 -0.0629289 -1)
(0.00707107 -0.0629289 1)
(0.00642788 -0.0623396 -1)
(0.00642788 -0.0623396 1)
(0.00573576 -0.0618085 -1)
(0.00573576 -0.0618085 1)
(0.005 -0.0613398 -1)
(0.005 -0.0613398 1)
(0.00422618 -0.0609369 -1)
(0.00422618 -0.0609369 1)
(0.0034202 -0.0606031 -1)
(0.0034202 -0.0606031 1)
(0.00258819 -0.0603407 -1)
(0.00258819 -0.0603407 1)
(0.00173648 -0.0601519 -1)
(0.00173648 -0.0601519 1)
(0.000871557 -0.0600381 -1)
(0.000871557 -0.0600381 1)
(6.12323e-19 -0.06 -1)
(6.12323e-19 -0.06 1)
(1.22465e-18 -0.05 1)
(0.00125581 -0.0500395 1)
(0.00250666 -0.0501577 1)
(0.02 -0.07 1)
(0.0107165 -0.0531134 1)
(0.00963507 -0.0524739 1)
(0.00851559 -0.0519035 1)
(0.0190211 -0.0638197 1)
(0.0185955 -0.0626375 1)
(0.0180965 -0.0614844 1)
(0.0199605 -0.0687442 1)
(0.0198423 -0.0674933 1)
(0.0196457 -0.0662524 1)
(0.0193717 -0.0650262 1)
(0.00736249 -0.0514045 1)
(0.00618034 -0.0509789 1)
(0.0049738 -0.0506283 1)
(0.00374763 -0.0503543 1)
(0.0145794 -0.0563091 1)
(0.0136909 -0.0554206 1)
(0.0127485 -0.0545897 1)
(0.0117557 -0.0538197 1)
(0.0175261 -0.0603649 1)
(0.0168866 -0.0592835 1)
(0.0161803 -0.0582443 1)
(0.0154103 -0.0572515 1)
(1.22465e-18 -0.05 -1)
(0.00125581 -0.0500395 -1)
(0.00250666 -0.0501577 -1)
(0.00374763 -0.0503543 -1)
(0.0049738 -0.0506283 -1)
(0.00618034 -0.0509789 -1)
(0.00736249 -0.0514045 -1)
(0.00851559 -0.0519035 -1)
(0.00963507 -0.0524739 -1)
(0.0107165 -0.0531134 -1)
(0.0117557 -0.0538197 -1)
(0.0127485 -0.0545897 -1)
(0.0136909 -0.0554206 -1)
(0.0145794 -0.0563091 -1)
(0.0154103 -0.0572515 -1)
(0.0161803 -0.0582443 -1)
(0.0168866 -0.0592835 -1)
(0.0175261 -0.0603649 -1)
(0.0180965 -0.0614844 -1)
(0.0185955 -0.0626375 -1)
(0.0190211 -0.0638197 -1)
(0.0193717 -0.0650262 -1)
(0.0196457 -0.0662524 -1)
(0.0198423 -0.0674933 -1)
(0.0199605 -0.0687442 -1)
(0.02 -0.07 -1)
(0.1 0.05 -1)
(0.1 0.05 1)
(0.101495 0.0499441 1)
(0.101495 0.0499441 -1)
(0.102981 0.0497766 1)
(0.102981 0.0497766 -1)
(0.10445 0.0494986 1)
(0.10445 0.0494986 -1)
(0.105895 0.0491115 1)
(0.105895 0.0491115 -1)
(0.107307 0.0486175 1)
(0.107307 0.0486175 -1)
(0.108678 0.0480194 1)
(0.108678 0.0480194 -1)
(0.11 0.0473205 1)
(0.11 0.0473205 -1)
(0.111266 0.0465248 1)
(0.111266 0.0465248 -1)
(0.11247 0.0456366 1)
(0.11247 0.0456366 -1)
(0.113603 0.044661 1)
(0.113603 0.044661 -1)
(0.114661 0.0436035 1)
(0.114661 0.0436035 -1)
(0.115637 0.0424698 1)
(0.115637 0.0424698 -1)
(0.116525 0.0412664 1)
(0.116525 0.0412664 -1)
(0.117321 0.04 1)
(0.117321 0.04 -1)
(0.118019 0.0386777 1)
(0.118019 0.0386777 -1)
(0.118617 0.0373068 1)
(0.118617 0.0373068 -1)
(0.119112 0.0358951 1)
(0.119112 0.0358951 -1)
(0.119499 0.0344504 1)
(0.119499 0.0344504 -1)
(0.119777 0.0329808 1)
(0.119777 0.0329808 -1)
(0.119944 0.0314946 1)
(0.119944 0.0314946 -1)
(0.12 0.03 1)
(0.12 0.03 -1)
(0.13 0.03 -1)
(0.13 0.03 1)
(0.129945 0.0318114 -1)
(0.129945 0.0318114 1)
(0.129781 0.0336161 -1)
(0.129781 0.0336161 1)
(0.129509 0.0354077 -1)
(0.129509 0.0354077 1)
(0.129128 0.0371795 -1)
(0.129128 0.0371795 1)
(0.128642 0.0389251 -1)
(0.128642 0.0389251 1)
(0.12805 0.0406381 -1)
(0.12805 0.0406381 1)
(0.127357 0.0423124 -1)
(0.127357 0.0423124 1)
(0.126564 0.0439417 -1)
(0.126564 0.0439417 1)
(0.125673 0.0455201 -1)
(0.125673 0.0455201 1)
(0.124689 0.0470419 -1)
(0.124689 0.0470419 1)
(0.123616 0.0485016 -1)
(0.123616 0.0485016 1)
(0.122455 0.0498937 -1)
(0.122455 0.0498937 1)
(0.121213 0.0512132 -1)
(0.121213 0.0512132 1)
(0.119894 0.0524553 -1)
(0.119894 0.0524553 1)
(0.118502 0.0536155 -1)
(0.118502 0.0536155 1)
(0.117042 0.0546895 -1)
(0.117042 0.0546895 1)
(0.11552 0.0556734 -1)
(0.11552 0.0556734 1)
(0.113942 0.0565637 -1)
(0.113942 0.0565637 1)
(0.112312 0.057357 -1)
(0.112312 0.057357 1)
(0.110638 0.0580505 -1)
(0.110638 0.0580505 1)
(0.108925 0.0586416 -1)
(0.108925 0.0586416 1)
(0.107179 0.0591282 -1)
(0.107179 0.0591282 1)
(0.105408 0.0595086 -1)
(0.105408 0.0595086 1)
(0.103616 0.0597813 -1)
(0.103616 0.0597813 1)
(0.101811 0.0599453 -1)
(0.101811 0.0599453 1)
(0.1 0.06 -1)
(0.1 0.06 1)
)


// edges:

212
(
(16 17)
(18 19)
(20 16)
(19 21)
(22 20)
(21 23)
(24 22)
(23 25)
(26 24)
(25 27)
(28 26)
(27 29)
(30 28)
(29 31)
(32 30)
(31 33)
(34 32)
(33 35)
(36 34)
(35 37)
(38 36)
(37 39)
(40 38)
(39 41)
(42 40)
(41 43)
(44 42)
(43 45)
(46 44)
(45 47)
(48 46)
(47 49)
(50 48)
(49 51)
(52 50)
(51 53)
(0 1)
(54 0)
(1 53)
(55 54)
(56 55)
(2 3)
(18 2)
(3 57)
(58 59)
(59 60)
(61 62)
(62 63)
(57 64)
(64 65)
(65 66)
(66 67)
(67 61)
(60 68)
(68 69)
(69 70)
(70 71)
(71 56)
(72 73)
(73 74)
(74 75)
(75 58)
(63 76)
(76 77)
(77 78)
(78 79)
(79 72)
(4 52)
(1 4)
(5 4)
(0 5)
(80 5)
(81 80)
(82 81)
(83 82)
(84 83)
(85 84)
(86 85)
(87 86)
(88 87)
(89 88)
(90 89)
(91 90)
(92 91)
(93 92)
(94 93)
(95 94)
(96 95)
(97 96)
(98 97)
(99 98)
(100 99)
(101 100)
(102 101)
(103 102)
(104 103)
(105 104)
(6 105)
(3 6)
(7 6)
(2 7)
(17 7)
(8 9)
(10 8)
(11 10)
(9 11)
(8 106)
(107 9)
(108 107)
(106 109)
(110 108)
(109 111)
(112 110)
(111 113)
(114 112)
(113 115)
(116 114)
(115 117)
(118 116)
(117 119)
(120 118)
(119 121)
(122 120)
(121 123)
(124 122)
(123 125)
(126 124)
(125 127)
(128 126)
(127 129)
(130 128)
(129 131)
(132 130)
(131 133)
(134 132)
(133 135)
(136 134)
(135 137)
(138 136)
(137 139)
(140 138)
(139 141)
(142 140)
(141 143)
(144 142)
(143 145)
(146 144)
(145 147)
(148 146)
(147 149)
(12 13)
(149 12)
(13 148)
(14 15)
(12 14)
(15 13)
(14 150)
(151 15)
(150 152)
(153 151)
(152 154)
(155 153)
(154 156)
(157 155)
(156 158)
(159 157)
(158 160)
(161 159)
(160 162)
(163 161)
(162 164)
(165 163)
(164 166)
(167 165)
(166 168)
(169 167)
(168 170)
(171 169)
(170 172)
(173 171)
(172 174)
(175 173)
(174 176)
(177 175)
(176 178)
(179 177)
(178 180)
(181 179)
(180 182)
(183 181)
(182 184)
(185 183)
(184 186)
(187 185)
(186 188)
(189 187)
(188 190)
(191 189)
(190 192)
(193 191)
(192 194)
(195 193)
(194 196)
(197 195)
(196 198)
(199 197)
(198 200)
(201 199)
(200 202)
(203 201)
(202 10)
(11 203)
)

// * * * * * * * * * * * * * * * * * * * * * * * * * * * * * * * * * * * * * //


// ************************************************************************* //
