/*--------------------------------*- C++ -*----------------------------------*\
| =========                 |                                                 |
| \\      /  F ield         | OpenFOAM: The Open Source CFD Toolbox           |
|  \\    /   O peration     | Version:  v1912                                 |
|   \\  /    A nd           | Website:  www.openfoam.com                      |
|    \\/     M anipulation  |                                                 |
\*---------------------------------------------------------------------------*/
FoamFile
{
    version     2.0;
    format      ascii;
    class       featureEdgeMesh;
    location    "constant/triSurface";
    object      vane10.eMesh;
}
// * * * * * * * * * * * * * * * * * * * * * * * * * * * * * * * * * * * * * //


// points:

138
(
(1.6347 -0.0700612 -1)
(1.63351 -0.0721536 -1)
(1.62675 -0.0726083 -1)
(1.62525 -0.0705991 -1)
(1.62822 -0.0734247 -1)
(1.53062 0.023755 -1)
(1.53006 0.0253416 -1)
(1.6347 -0.0700612 1)
(1.62525 -0.0705991 1)
(1.53062 0.023755 1)
(1.62822 -0.0734247 1)
(1.63351 -0.0721536 1)
(1.62675 -0.0726083 1)
(1.53006 0.0253416 1)
(1.53524 0.0311762 1)
(1.54485 0.0302515 1)
(1.54485 0.0302515 -1)
(1.53524 0.0311762 -1)
(1.55433 0.0284489 1)
(1.55433 0.0284489 -1)
(1.5636 0.0257838 1)
(1.5636 0.0257838 -1)
(1.57259 0.0222786 1)
(1.57259 0.0222786 -1)
(1.58122 0.0179629 1)
(1.58122 0.0179629 -1)
(1.58942 0.012873 1)
(1.58942 0.012873 -1)
(1.59712 0.0070522 1)
(1.59712 0.0070522 -1)
(1.60425 0.0005493 1)
(1.60425 0.0005493 -1)
(1.61075 -0.0065805 1)
(1.61075 -0.0065805 -1)
(1.61657 -0.0142771 1)
(1.61657 -0.0142771 -1)
(1.62166 -0.0224756 1)
(1.62166 -0.0224756 -1)
(1.62598 -0.0311066 1)
(1.62598 -0.0311066 -1)
(1.62948 -0.0400975 1)
(1.62948 -0.0400975 -1)
(1.63215 -0.049372 1)
(1.63215 -0.049372 -1)
(1.63395 -0.0588521 1)
(1.63395 -0.0588521 -1)
(1.63488 -0.0684575 1)
(1.63488 -0.0684575 -1)
(1.62397 -0.0596905 -1)
(1.62489 -0.0689575 -1)
(1.62489 -0.0689575 1)
(1.62397 -0.0596905 1)
(1.62214 -0.0505582 -1)
(1.62214 -0.0505582 1)
(1.61944 -0.0416483 -1)
(1.61944 -0.0416483 1)
(1.61587 -0.0330463 -1)
(1.61587 -0.0330463 1)
(1.61147 -0.0248348 -1)
(1.61147 -0.0248348 1)
(1.6063 -0.017093 -1)
(1.6063 -0.017093 1)
(1.60039 -0.0098949 -1)
(1.60039 -0.0098949 1)
(1.59381 -0.0033099 -1)
(1.59381 -0.0033099 1)
(1.58661 0.0025988 -1)
(1.58661 0.0025988 1)
(1.57887 0.0077745 -1)
(1.57887 0.0077745 1)
(1.57065 0.0121676 -1)
(1.57065 0.0121676 1)
(1.56205 0.0157356 -1)
(1.56205 0.0157356 1)
(1.55314 0.0184444 -1)
(1.55314 0.0184444 1)
(1.54401 0.020268 -1)
(1.54401 0.020268 1)
(1.53474 0.0211887 -1)
(1.53474 0.0211887 1)
(1.63485 -0.0692667 -1)
(1.53288 0.0307143 -1)
(1.53364 0.0309958 -1)
(1.63441 -0.0708202 -1)
(1.63401 -0.0715238 -1)
(1.53443 0.0311511 -1)
(1.63222 -0.073128 -1)
(1.63148 -0.0734471 -1)
(1.63069 -0.073642 -1)
(1.62988 -0.0737075 -1)
(1.62904 -0.0736363 -1)
(1.6329 -0.072693 -1)
(1.62746 -0.0730787 -1)
(1.62614 -0.0720267 -1)
(1.62564 -0.0713505 -1)
(1.625 -0.0697938 -1)
(1.53006 0.0269893 -1)
(1.53025 0.0277751 -1)
(1.53057 0.028519 -1)
(1.53101 0.0292018 -1)
(1.53155 0.0298053 -1)
(1.53218 0.0303139 -1)
(1.52999 0.0261825 -1)
(1.53391 0.0213019 -1)
(1.5331 0.0215541 -1)
(1.53235 0.0219381 -1)
(1.53167 0.0224431 -1)
(1.53109 0.0230545 -1)
(1.53028 0.0245247 -1)
(1.53443 0.0311511 1)
(1.53364 0.0309958 1)
(1.63441 -0.0708202 1)
(1.62988 -0.0737075 1)
(1.63069 -0.073642 1)
(1.63485 -0.0692667 1)
(1.62904 -0.0736363 1)
(1.53288 0.0307143 1)
(1.53218 0.0303139 1)
(1.53155 0.0298053 1)
(1.53101 0.0292018 1)
(1.53057 0.028519 1)
(1.53025 0.0277751 1)
(1.53006 0.0269893 1)
(1.52999 0.0261825 1)
(1.53391 0.0213019 1)
(1.625 -0.0697938 1)
(1.63148 -0.0734471 1)
(1.63222 -0.073128 1)
(1.6329 -0.072693 1)
(1.53028 0.0245247 1)
(1.62746 -0.0730787 1)
(1.63401 -0.0715238 1)
(1.62564 -0.0713505 1)
(1.62614 -0.0720267 1)
(1.5331 0.0215541 1)
(1.53109 0.0230545 1)
(1.53167 0.0224431 1)
(1.53235 0.0219381 1)
)


// edges:

145
(
(14 15)
(16 17)
(15 18)
(19 16)
(18 20)
(21 19)
(20 22)
(23 21)
(22 24)
(25 23)
(24 26)
(27 25)
(26 28)
(29 27)
(28 30)
(31 29)
(30 32)
(33 31)
(32 34)
(35 33)
(34 36)
(37 35)
(36 38)
(39 37)
(38 40)
(41 39)
(40 42)
(43 41)
(42 44)
(45 43)
(44 46)
(47 45)
(48 49)
(50 51)
(52 48)
(51 53)
(54 52)
(53 55)
(56 54)
(55 57)
(58 56)
(57 59)
(60 58)
(59 61)
(62 60)
(61 63)
(64 62)
(63 65)
(66 64)
(65 67)
(68 66)
(67 69)
(70 68)
(69 71)
(72 70)
(71 73)
(74 72)
(73 75)
(76 74)
(75 77)
(78 76)
(77 79)
(47 80)
(81 82)
(80 0)
(0 83)
(83 84)
(82 85)
(85 17)
(86 87)
(87 88)
(88 89)
(89 90)
(84 1)
(1 91)
(91 86)
(92 2)
(2 93)
(93 94)
(94 3)
(90 4)
(4 92)
(95 49)
(3 95)
(96 97)
(97 98)
(98 99)
(99 100)
(100 101)
(101 81)
(102 96)
(78 103)
(103 104)
(104 105)
(105 106)
(106 107)
(107 5)
(5 108)
(108 6)
(6 102)
(109 110)
(14 109)
(111 7)
(112 113)
(7 114)
(114 46)
(115 112)
(110 116)
(116 117)
(117 118)
(118 119)
(119 120)
(120 121)
(121 122)
(122 123)
(124 79)
(125 8)
(113 126)
(126 127)
(127 128)
(129 9)
(50 125)
(130 10)
(10 115)
(128 11)
(11 131)
(131 111)
(8 132)
(132 133)
(12 130)
(133 12)
(134 124)
(123 13)
(13 129)
(9 135)
(135 136)
(137 134)
(136 137)
(7 0)
(11 1)
(10 4)
(12 2)
(8 3)
(9 5)
(13 6)
)

// * * * * * * * * * * * * * * * * * * * * * * * * * * * * * * * * * * * * * //


// ************************************************************************* //
