/*--------------------------------*- C++ -*----------------------------------*\
| =========                 |                                                 |
| \\      /  F ield         | OpenFOAM: The Open Source CFD Toolbox           |
|  \\    /   O peration     | Version:  v1912                                 |
|   \\  /    A nd           | Website:  www.openfoam.com                      |
|    \\/     M anipulation  |                                                 |
\*---------------------------------------------------------------------------*/
FoamFile
{
    version     2.0;
    format      ascii;
    class       featureEdgeMesh;
    location    "constant/triSurface";
    object      vane11.eMesh;
}
// * * * * * * * * * * * * * * * * * * * * * * * * * * * * * * * * * * * * * //


// points:

138
(
(1.6847 -0.0174612 -1)
(1.68351 -0.0195536 -1)
(1.67675 -0.0200083 -1)
(1.67525 -0.0179991 -1)
(1.67822 -0.0208247 -1)
(1.58062 0.076355 -1)
(1.58006 0.0779416 -1)
(1.6847 -0.0174612 1)
(1.67525 -0.0179991 1)
(1.58062 0.076355 1)
(1.67822 -0.0208247 1)
(1.68351 -0.0195536 1)
(1.67675 -0.0200083 1)
(1.58006 0.0779416 1)
(1.58524 0.0837762 1)
(1.59485 0.0828515 1)
(1.59485 0.0828515 -1)
(1.58524 0.0837762 -1)
(1.60433 0.0810489 1)
(1.60433 0.0810489 -1)
(1.6136 0.0783838 1)
(1.6136 0.0783838 -1)
(1.62259 0.0748786 1)
(1.62259 0.0748786 -1)
(1.63122 0.0705629 1)
(1.63122 0.0705629 -1)
(1.63942 0.065473 1)
(1.63942 0.065473 -1)
(1.64712 0.0596522 1)
(1.64712 0.0596522 -1)
(1.65425 0.0531493 1)
(1.65425 0.0531493 -1)
(1.66075 0.0460195 1)
(1.66075 0.0460195 -1)
(1.66657 0.0383229 1)
(1.66657 0.0383229 -1)
(1.67166 0.0301244 1)
(1.67166 0.0301244 -1)
(1.67598 0.0214934 1)
(1.67598 0.0214934 -1)
(1.67948 0.0125025 1)
(1.67948 0.0125025 -1)
(1.68215 0.003228 1)
(1.68215 0.003228 -1)
(1.68395 -0.0062521 1)
(1.68395 -0.0062521 -1)
(1.68488 -0.0158575 1)
(1.68488 -0.0158575 -1)
(1.67397 -0.0070905 -1)
(1.67489 -0.0163575 -1)
(1.67489 -0.0163575 1)
(1.67397 -0.0070905 1)
(1.67214 0.0020418 -1)
(1.67214 0.0020418 1)
(1.66944 0.0109517 -1)
(1.66944 0.0109517 1)
(1.66587 0.0195537 -1)
(1.66587 0.0195537 1)
(1.66147 0.0277652 -1)
(1.66147 0.0277652 1)
(1.6563 0.035507 -1)
(1.6563 0.035507 1)
(1.65039 0.0427051 -1)
(1.65039 0.0427051 1)
(1.64381 0.0492901 -1)
(1.64381 0.0492901 1)
(1.63661 0.0551988 -1)
(1.63661 0.0551988 1)
(1.62887 0.0603745 -1)
(1.62887 0.0603745 1)
(1.62065 0.0647676 -1)
(1.62065 0.0647676 1)
(1.61205 0.0683356 -1)
(1.61205 0.0683356 1)
(1.60314 0.0710444 -1)
(1.60314 0.0710444 1)
(1.59401 0.072868 -1)
(1.59401 0.072868 1)
(1.58474 0.0737887 -1)
(1.58474 0.0737887 1)
(1.68485 -0.0166667 -1)
(1.58288 0.0833143 -1)
(1.58364 0.0835958 -1)
(1.68441 -0.0182202 -1)
(1.68401 -0.0189238 -1)
(1.58443 0.0837511 -1)
(1.68222 -0.020528 -1)
(1.68148 -0.0208471 -1)
(1.68069 -0.021042 -1)
(1.67988 -0.0211075 -1)
(1.67904 -0.0210363 -1)
(1.6829 -0.020093 -1)
(1.67746 -0.0204787 -1)
(1.67614 -0.0194267 -1)
(1.67564 -0.0187505 -1)
(1.675 -0.0171938 -1)
(1.58006 0.0795893 -1)
(1.58025 0.0803751 -1)
(1.58057 0.081119 -1)
(1.58101 0.0818018 -1)
(1.58155 0.0824053 -1)
(1.58218 0.0829139 -1)
(1.57999 0.0787825 -1)
(1.58391 0.0739019 -1)
(1.5831 0.0741541 -1)
(1.58235 0.0745381 -1)
(1.58167 0.0750431 -1)
(1.58109 0.0756545 -1)
(1.58028 0.0771247 -1)
(1.58443 0.0837511 1)
(1.58364 0.0835958 1)
(1.68441 -0.0182202 1)
(1.67988 -0.0211075 1)
(1.68069 -0.021042 1)
(1.68485 -0.0166667 1)
(1.67904 -0.0210363 1)
(1.58288 0.0833143 1)
(1.58218 0.0829139 1)
(1.58155 0.0824053 1)
(1.58101 0.0818018 1)
(1.58057 0.081119 1)
(1.58025 0.0803751 1)
(1.58006 0.0795893 1)
(1.57999 0.0787825 1)
(1.58391 0.0739019 1)
(1.675 -0.0171938 1)
(1.68148 -0.0208471 1)
(1.68222 -0.020528 1)
(1.6829 -0.020093 1)
(1.58028 0.0771247 1)
(1.67746 -0.0204787 1)
(1.68401 -0.0189238 1)
(1.67564 -0.0187505 1)
(1.67614 -0.0194267 1)
(1.5831 0.0741541 1)
(1.58109 0.0756545 1)
(1.58167 0.0750431 1)
(1.58235 0.0745381 1)
)


// edges:

145
(
(14 15)
(16 17)
(15 18)
(19 16)
(18 20)
(21 19)
(20 22)
(23 21)
(22 24)
(25 23)
(24 26)
(27 25)
(26 28)
(29 27)
(28 30)
(31 29)
(30 32)
(33 31)
(32 34)
(35 33)
(34 36)
(37 35)
(36 38)
(39 37)
(38 40)
(41 39)
(40 42)
(43 41)
(42 44)
(45 43)
(44 46)
(47 45)
(48 49)
(50 51)
(52 48)
(51 53)
(54 52)
(53 55)
(56 54)
(55 57)
(58 56)
(57 59)
(60 58)
(59 61)
(62 60)
(61 63)
(64 62)
(63 65)
(66 64)
(65 67)
(68 66)
(67 69)
(70 68)
(69 71)
(72 70)
(71 73)
(74 72)
(73 75)
(76 74)
(75 77)
(78 76)
(77 79)
(47 80)
(81 82)
(80 0)
(0 83)
(83 84)
(82 85)
(85 17)
(86 87)
(87 88)
(88 89)
(89 90)
(84 1)
(1 91)
(91 86)
(92 2)
(2 93)
(93 94)
(94 3)
(90 4)
(4 92)
(95 49)
(3 95)
(96 97)
(97 98)
(98 99)
(99 100)
(100 101)
(101 81)
(102 96)
(78 103)
(103 104)
(104 105)
(105 106)
(106 107)
(107 5)
(5 108)
(108 6)
(6 102)
(109 110)
(14 109)
(111 7)
(112 113)
(7 114)
(114 46)
(115 112)
(110 116)
(116 117)
(117 118)
(118 119)
(119 120)
(120 121)
(121 122)
(122 123)
(124 79)
(125 8)
(113 126)
(126 127)
(127 128)
(129 9)
(50 125)
(130 10)
(10 115)
(128 11)
(11 131)
(131 111)
(8 132)
(132 133)
(12 130)
(133 12)
(134 124)
(123 13)
(13 129)
(9 135)
(135 136)
(137 134)
(136 137)
(7 0)
(11 1)
(10 4)
(12 2)
(8 3)
(9 5)
(13 6)
)

// * * * * * * * * * * * * * * * * * * * * * * * * * * * * * * * * * * * * * //


// ************************************************************************* //
