/*--------------------------------*- C++ -*----------------------------------*\
| =========                 |                                                 |
| \\      /  F ield         | OpenFOAM: The Open Source CFD Toolbox           |
|  \\    /   O peration     | Version:  v1912                                 |
|   \\  /    A nd           | Website:  www.openfoam.com                      |
|    \\/     M anipulation  |                                                 |
\*---------------------------------------------------------------------------*/
FoamFile
{
    version     2.0;
    format      ascii;
    class       featureEdgeMesh;
    location    "constant/triSurface";
    object      vane18.eMesh;
}
// * * * * * * * * * * * * * * * * * * * * * * * * * * * * * * * * * * * * * //


// points:

138
(
(2.0547 0.350639 -1)
(2.05351 0.348546 -1)
(2.04675 0.348092 -1)
(2.04525 0.350101 -1)
(2.04822 0.347275 -1)
(1.95062 0.444455 -1)
(1.95006 0.446042 -1)
(2.0547 0.350639 1)
(2.04525 0.350101 1)
(1.95062 0.444455 1)
(2.04822 0.347275 1)
(2.05351 0.348546 1)
(2.04675 0.348092 1)
(1.95006 0.446042 1)
(1.95524 0.451876 1)
(1.96485 0.450952 1)
(1.96485 0.450952 -1)
(1.95524 0.451876 -1)
(1.97433 0.449149 1)
(1.97433 0.449149 -1)
(1.9836 0.446484 1)
(1.9836 0.446484 -1)
(1.99259 0.442979 1)
(1.99259 0.442979 -1)
(2.00122 0.438663 1)
(2.00122 0.438663 -1)
(2.00942 0.433573 1)
(2.00942 0.433573 -1)
(2.01712 0.427752 1)
(2.01712 0.427752 -1)
(2.02425 0.421249 1)
(2.02425 0.421249 -1)
(2.03075 0.41412 1)
(2.03075 0.41412 -1)
(2.03657 0.406423 1)
(2.03657 0.406423 -1)
(2.04166 0.398224 1)
(2.04166 0.398224 -1)
(2.04598 0.389593 1)
(2.04598 0.389593 -1)
(2.04948 0.380602 1)
(2.04948 0.380602 -1)
(2.05215 0.371328 1)
(2.05215 0.371328 -1)
(2.05395 0.361848 1)
(2.05395 0.361848 -1)
(2.05488 0.352242 1)
(2.05488 0.352242 -1)
(2.04397 0.36101 -1)
(2.04489 0.351742 -1)
(2.04489 0.351742 1)
(2.04397 0.36101 1)
(2.04214 0.370142 -1)
(2.04214 0.370142 1)
(2.03944 0.379052 -1)
(2.03944 0.379052 1)
(2.03587 0.387654 -1)
(2.03587 0.387654 1)
(2.03147 0.395865 -1)
(2.03147 0.395865 1)
(2.0263 0.403607 -1)
(2.0263 0.403607 1)
(2.02039 0.410805 -1)
(2.02039 0.410805 1)
(2.01381 0.41739 -1)
(2.01381 0.41739 1)
(2.00661 0.423299 -1)
(2.00661 0.423299 1)
(1.99887 0.428475 -1)
(1.99887 0.428475 1)
(1.99065 0.432868 -1)
(1.99065 0.432868 1)
(1.98205 0.436436 -1)
(1.98205 0.436436 1)
(1.97314 0.439144 -1)
(1.97314 0.439144 1)
(1.96401 0.440968 -1)
(1.96401 0.440968 1)
(1.95474 0.441889 -1)
(1.95474 0.441889 1)
(2.05485 0.351433 -1)
(1.95288 0.451414 -1)
(1.95364 0.451696 -1)
(2.05441 0.34988 -1)
(2.05401 0.349176 -1)
(1.95443 0.451851 -1)
(2.05222 0.347572 -1)
(2.05148 0.347253 -1)
(2.05069 0.347058 -1)
(2.04988 0.346993 -1)
(2.04904 0.347064 -1)
(2.0529 0.348007 -1)
(2.04746 0.347621 -1)
(2.04614 0.348673 -1)
(2.04564 0.349349 -1)
(2.045 0.350906 -1)
(1.95006 0.447689 -1)
(1.95025 0.448475 -1)
(1.95057 0.449219 -1)
(1.95101 0.449902 -1)
(1.95155 0.450505 -1)
(1.95218 0.451014 -1)
(1.94999 0.446883 -1)
(1.95391 0.442002 -1)
(1.9531 0.442254 -1)
(1.95235 0.442638 -1)
(1.95167 0.443143 -1)
(1.95109 0.443755 -1)
(1.95028 0.445225 -1)
(1.95443 0.451851 1)
(1.95364 0.451696 1)
(2.05441 0.34988 1)
(2.04988 0.346993 1)
(2.05069 0.347058 1)
(2.05485 0.351433 1)
(2.04904 0.347064 1)
(1.95288 0.451414 1)
(1.95218 0.451014 1)
(1.95155 0.450505 1)
(1.95101 0.449902 1)
(1.95057 0.449219 1)
(1.95025 0.448475 1)
(1.95006 0.447689 1)
(1.94999 0.446883 1)
(1.95391 0.442002 1)
(2.045 0.350906 1)
(2.05148 0.347253 1)
(2.05222 0.347572 1)
(2.0529 0.348007 1)
(1.95028 0.445225 1)
(2.04746 0.347621 1)
(2.05401 0.349176 1)
(2.04564 0.349349 1)
(2.04614 0.348673 1)
(1.9531 0.442254 1)
(1.95109 0.443755 1)
(1.95167 0.443143 1)
(1.95235 0.442638 1)
)


// edges:

145
(
(14 15)
(16 17)
(15 18)
(19 16)
(18 20)
(21 19)
(20 22)
(23 21)
(22 24)
(25 23)
(24 26)
(27 25)
(26 28)
(29 27)
(28 30)
(31 29)
(30 32)
(33 31)
(32 34)
(35 33)
(34 36)
(37 35)
(36 38)
(39 37)
(38 40)
(41 39)
(40 42)
(43 41)
(42 44)
(45 43)
(44 46)
(47 45)
(48 49)
(50 51)
(52 48)
(51 53)
(54 52)
(53 55)
(56 54)
(55 57)
(58 56)
(57 59)
(60 58)
(59 61)
(62 60)
(61 63)
(64 62)
(63 65)
(66 64)
(65 67)
(68 66)
(67 69)
(70 68)
(69 71)
(72 70)
(71 73)
(74 72)
(73 75)
(76 74)
(75 77)
(78 76)
(77 79)
(47 80)
(81 82)
(80 0)
(0 83)
(83 84)
(82 85)
(85 17)
(86 87)
(87 88)
(88 89)
(89 90)
(84 1)
(1 91)
(91 86)
(92 2)
(2 93)
(93 94)
(94 3)
(90 4)
(4 92)
(95 49)
(3 95)
(96 97)
(97 98)
(98 99)
(99 100)
(100 101)
(101 81)
(102 96)
(78 103)
(103 104)
(104 105)
(105 106)
(106 107)
(107 5)
(5 108)
(108 6)
(6 102)
(109 110)
(14 109)
(111 7)
(112 113)
(7 114)
(114 46)
(115 112)
(110 116)
(116 117)
(117 118)
(118 119)
(119 120)
(120 121)
(121 122)
(122 123)
(124 79)
(125 8)
(113 126)
(126 127)
(127 128)
(129 9)
(50 125)
(130 10)
(10 115)
(128 11)
(11 131)
(131 111)
(8 132)
(132 133)
(12 130)
(133 12)
(134 124)
(123 13)
(13 129)
(9 135)
(135 136)
(137 134)
(136 137)
(7 0)
(11 1)
(10 4)
(12 2)
(8 3)
(9 5)
(13 6)
)

// * * * * * * * * * * * * * * * * * * * * * * * * * * * * * * * * * * * * * //


// ************************************************************************* //
