/*--------------------------------*- C++ -*----------------------------------*\
| =========                 |                                                 |
| \\      /  F ield         | OpenFOAM: The Open Source CFD Toolbox           |
|  \\    /   O peration     | Version:  v1912                                 |
|   \\  /    A nd           | Website:  www.openfoam.com                      |
|    \\/     M anipulation  |                                                 |
\*---------------------------------------------------------------------------*/
FoamFile
{
    version     2.0;
    format      ascii;
    class       featureEdgeMesh;
    location    "constant/triSurface";
    object      vane14.eMesh;
}
// * * * * * * * * * * * * * * * * * * * * * * * * * * * * * * * * * * * * * //


// points:

138
(
(1.8447 0.140639 -1)
(1.84351 0.138546 -1)
(1.83675 0.138092 -1)
(1.83525 0.140101 -1)
(1.83822 0.137275 -1)
(1.74062 0.234455 -1)
(1.74006 0.236042 -1)
(1.8447 0.140639 1)
(1.83525 0.140101 1)
(1.74062 0.234455 1)
(1.83822 0.137275 1)
(1.84351 0.138546 1)
(1.83675 0.138092 1)
(1.74006 0.236042 1)
(1.74524 0.241876 1)
(1.75485 0.240952 1)
(1.75485 0.240952 -1)
(1.74524 0.241876 -1)
(1.76433 0.239149 1)
(1.76433 0.239149 -1)
(1.7736 0.236484 1)
(1.7736 0.236484 -1)
(1.78259 0.232979 1)
(1.78259 0.232979 -1)
(1.79122 0.228663 1)
(1.79122 0.228663 -1)
(1.79942 0.223573 1)
(1.79942 0.223573 -1)
(1.80712 0.217752 1)
(1.80712 0.217752 -1)
(1.81425 0.211249 1)
(1.81425 0.211249 -1)
(1.82075 0.20412 1)
(1.82075 0.20412 -1)
(1.82657 0.196423 1)
(1.82657 0.196423 -1)
(1.83166 0.188224 1)
(1.83166 0.188224 -1)
(1.83598 0.179593 1)
(1.83598 0.179593 -1)
(1.83948 0.170602 1)
(1.83948 0.170602 -1)
(1.84215 0.161328 1)
(1.84215 0.161328 -1)
(1.84395 0.151848 1)
(1.84395 0.151848 -1)
(1.84488 0.142242 1)
(1.84488 0.142242 -1)
(1.83397 0.15101 -1)
(1.83489 0.141742 -1)
(1.83489 0.141742 1)
(1.83397 0.15101 1)
(1.83214 0.160142 -1)
(1.83214 0.160142 1)
(1.82944 0.169052 -1)
(1.82944 0.169052 1)
(1.82587 0.177654 -1)
(1.82587 0.177654 1)
(1.82147 0.185865 -1)
(1.82147 0.185865 1)
(1.8163 0.193607 -1)
(1.8163 0.193607 1)
(1.81039 0.200805 -1)
(1.81039 0.200805 1)
(1.80381 0.20739 -1)
(1.80381 0.20739 1)
(1.79661 0.213299 -1)
(1.79661 0.213299 1)
(1.78887 0.218475 -1)
(1.78887 0.218475 1)
(1.78065 0.222868 -1)
(1.78065 0.222868 1)
(1.77205 0.226436 -1)
(1.77205 0.226436 1)
(1.76314 0.229144 -1)
(1.76314 0.229144 1)
(1.75401 0.230968 -1)
(1.75401 0.230968 1)
(1.74474 0.231889 -1)
(1.74474 0.231889 1)
(1.84485 0.141433 -1)
(1.74288 0.241414 -1)
(1.74364 0.241696 -1)
(1.84441 0.13988 -1)
(1.84401 0.139176 -1)
(1.74443 0.241851 -1)
(1.84222 0.137572 -1)
(1.84148 0.137253 -1)
(1.84069 0.137058 -1)
(1.83988 0.136993 -1)
(1.83904 0.137064 -1)
(1.8429 0.138007 -1)
(1.83746 0.137621 -1)
(1.83614 0.138673 -1)
(1.83564 0.139349 -1)
(1.835 0.140906 -1)
(1.74006 0.237689 -1)
(1.74025 0.238475 -1)
(1.74057 0.239219 -1)
(1.74101 0.239902 -1)
(1.74155 0.240505 -1)
(1.74218 0.241014 -1)
(1.73999 0.236883 -1)
(1.74391 0.232002 -1)
(1.7431 0.232254 -1)
(1.74235 0.232638 -1)
(1.74167 0.233143 -1)
(1.74109 0.233755 -1)
(1.74028 0.235225 -1)
(1.74443 0.241851 1)
(1.74364 0.241696 1)
(1.84441 0.13988 1)
(1.83988 0.136993 1)
(1.84069 0.137058 1)
(1.84485 0.141433 1)
(1.83904 0.137064 1)
(1.74288 0.241414 1)
(1.74218 0.241014 1)
(1.74155 0.240505 1)
(1.74101 0.239902 1)
(1.74057 0.239219 1)
(1.74025 0.238475 1)
(1.74006 0.237689 1)
(1.73999 0.236883 1)
(1.74391 0.232002 1)
(1.835 0.140906 1)
(1.84148 0.137253 1)
(1.84222 0.137572 1)
(1.8429 0.138007 1)
(1.74028 0.235225 1)
(1.83746 0.137621 1)
(1.84401 0.139176 1)
(1.83564 0.139349 1)
(1.83614 0.138673 1)
(1.7431 0.232254 1)
(1.74109 0.233755 1)
(1.74167 0.233143 1)
(1.74235 0.232638 1)
)


// edges:

145
(
(14 15)
(16 17)
(15 18)
(19 16)
(18 20)
(21 19)
(20 22)
(23 21)
(22 24)
(25 23)
(24 26)
(27 25)
(26 28)
(29 27)
(28 30)
(31 29)
(30 32)
(33 31)
(32 34)
(35 33)
(34 36)
(37 35)
(36 38)
(39 37)
(38 40)
(41 39)
(40 42)
(43 41)
(42 44)
(45 43)
(44 46)
(47 45)
(48 49)
(50 51)
(52 48)
(51 53)
(54 52)
(53 55)
(56 54)
(55 57)
(58 56)
(57 59)
(60 58)
(59 61)
(62 60)
(61 63)
(64 62)
(63 65)
(66 64)
(65 67)
(68 66)
(67 69)
(70 68)
(69 71)
(72 70)
(71 73)
(74 72)
(73 75)
(76 74)
(75 77)
(78 76)
(77 79)
(47 80)
(81 82)
(80 0)
(0 83)
(83 84)
(82 85)
(85 17)
(86 87)
(87 88)
(88 89)
(89 90)
(84 1)
(1 91)
(91 86)
(92 2)
(2 93)
(93 94)
(94 3)
(90 4)
(4 92)
(95 49)
(3 95)
(96 97)
(97 98)
(98 99)
(99 100)
(100 101)
(101 81)
(102 96)
(78 103)
(103 104)
(104 105)
(105 106)
(106 107)
(107 5)
(5 108)
(108 6)
(6 102)
(109 110)
(14 109)
(111 7)
(112 113)
(7 114)
(114 46)
(115 112)
(110 116)
(116 117)
(117 118)
(118 119)
(119 120)
(120 121)
(121 122)
(122 123)
(124 79)
(125 8)
(113 126)
(126 127)
(127 128)
(129 9)
(50 125)
(130 10)
(10 115)
(128 11)
(11 131)
(131 111)
(8 132)
(132 133)
(12 130)
(133 12)
(134 124)
(123 13)
(13 129)
(9 135)
(135 136)
(137 134)
(136 137)
(7 0)
(11 1)
(10 4)
(12 2)
(8 3)
(9 5)
(13 6)
)

// * * * * * * * * * * * * * * * * * * * * * * * * * * * * * * * * * * * * * //


// ************************************************************************* //
