/*--------------------------------*- C++ -*----------------------------------*\
| =========                 |                                                 |
| \\      /  F ield         | OpenFOAM: The Open Source CFD Toolbox           |
|  \\    /   O peration     | Version:  v1912                                 |
|   \\  /    A nd           | Website:  www.openfoam.com                      |
|    \\/     M anipulation  |                                                 |
\*---------------------------------------------------------------------------*/
FoamFile
{
    version     2.0;
    format      ascii;
    class       featureEdgeMesh;
    location    "constant/triSurface";
    object      vane16.eMesh;
}
// * * * * * * * * * * * * * * * * * * * * * * * * * * * * * * * * * * * * * //


// points:

138
(
(1.9447 0.245639 -1)
(1.94351 0.243546 -1)
(1.93675 0.243092 -1)
(1.93525 0.245101 -1)
(1.93822 0.242275 -1)
(1.84062 0.339455 -1)
(1.84006 0.341042 -1)
(1.9447 0.245639 1)
(1.93525 0.245101 1)
(1.84062 0.339455 1)
(1.93822 0.242275 1)
(1.94351 0.243546 1)
(1.93675 0.243092 1)
(1.84006 0.341042 1)
(1.84524 0.346876 1)
(1.85485 0.345952 1)
(1.85485 0.345952 -1)
(1.84524 0.346876 -1)
(1.86433 0.344149 1)
(1.86433 0.344149 -1)
(1.8736 0.341484 1)
(1.8736 0.341484 -1)
(1.88259 0.337979 1)
(1.88259 0.337979 -1)
(1.89122 0.333663 1)
(1.89122 0.333663 -1)
(1.89942 0.328573 1)
(1.89942 0.328573 -1)
(1.90712 0.322752 1)
(1.90712 0.322752 -1)
(1.91425 0.316249 1)
(1.91425 0.316249 -1)
(1.92075 0.30912 1)
(1.92075 0.30912 -1)
(1.92657 0.301423 1)
(1.92657 0.301423 -1)
(1.93166 0.293224 1)
(1.93166 0.293224 -1)
(1.93598 0.284593 1)
(1.93598 0.284593 -1)
(1.93948 0.275602 1)
(1.93948 0.275602 -1)
(1.94215 0.266328 1)
(1.94215 0.266328 -1)
(1.94395 0.256848 1)
(1.94395 0.256848 -1)
(1.94488 0.247242 1)
(1.94488 0.247242 -1)
(1.93397 0.25601 -1)
(1.93489 0.246742 -1)
(1.93489 0.246742 1)
(1.93397 0.25601 1)
(1.93214 0.265142 -1)
(1.93214 0.265142 1)
(1.92944 0.274052 -1)
(1.92944 0.274052 1)
(1.92587 0.282654 -1)
(1.92587 0.282654 1)
(1.92147 0.290865 -1)
(1.92147 0.290865 1)
(1.9163 0.298607 -1)
(1.9163 0.298607 1)
(1.91039 0.305805 -1)
(1.91039 0.305805 1)
(1.90381 0.31239 -1)
(1.90381 0.31239 1)
(1.89661 0.318299 -1)
(1.89661 0.318299 1)
(1.88887 0.323475 -1)
(1.88887 0.323475 1)
(1.88065 0.327868 -1)
(1.88065 0.327868 1)
(1.87205 0.331436 -1)
(1.87205 0.331436 1)
(1.86314 0.334144 -1)
(1.86314 0.334144 1)
(1.85401 0.335968 -1)
(1.85401 0.335968 1)
(1.84474 0.336889 -1)
(1.84474 0.336889 1)
(1.94485 0.246433 -1)
(1.84288 0.346414 -1)
(1.84364 0.346696 -1)
(1.94441 0.24488 -1)
(1.94401 0.244176 -1)
(1.84443 0.346851 -1)
(1.94222 0.242572 -1)
(1.94148 0.242253 -1)
(1.94069 0.242058 -1)
(1.93988 0.241993 -1)
(1.93904 0.242064 -1)
(1.9429 0.243007 -1)
(1.93746 0.242621 -1)
(1.93614 0.243673 -1)
(1.93564 0.244349 -1)
(1.935 0.245906 -1)
(1.84006 0.342689 -1)
(1.84025 0.343475 -1)
(1.84057 0.344219 -1)
(1.84101 0.344902 -1)
(1.84155 0.345505 -1)
(1.84218 0.346014 -1)
(1.83999 0.341883 -1)
(1.84391 0.337002 -1)
(1.8431 0.337254 -1)
(1.84235 0.337638 -1)
(1.84167 0.338143 -1)
(1.84109 0.338755 -1)
(1.84028 0.340225 -1)
(1.84443 0.346851 1)
(1.84364 0.346696 1)
(1.94441 0.24488 1)
(1.93988 0.241993 1)
(1.94069 0.242058 1)
(1.94485 0.246433 1)
(1.93904 0.242064 1)
(1.84288 0.346414 1)
(1.84218 0.346014 1)
(1.84155 0.345505 1)
(1.84101 0.344902 1)
(1.84057 0.344219 1)
(1.84025 0.343475 1)
(1.84006 0.342689 1)
(1.83999 0.341883 1)
(1.84391 0.337002 1)
(1.935 0.245906 1)
(1.94148 0.242253 1)
(1.94222 0.242572 1)
(1.9429 0.243007 1)
(1.84028 0.340225 1)
(1.93746 0.242621 1)
(1.94401 0.244176 1)
(1.93564 0.244349 1)
(1.93614 0.243673 1)
(1.8431 0.337254 1)
(1.84109 0.338755 1)
(1.84167 0.338143 1)
(1.84235 0.337638 1)
)


// edges:

145
(
(14 15)
(16 17)
(15 18)
(19 16)
(18 20)
(21 19)
(20 22)
(23 21)
(22 24)
(25 23)
(24 26)
(27 25)
(26 28)
(29 27)
(28 30)
(31 29)
(30 32)
(33 31)
(32 34)
(35 33)
(34 36)
(37 35)
(36 38)
(39 37)
(38 40)
(41 39)
(40 42)
(43 41)
(42 44)
(45 43)
(44 46)
(47 45)
(48 49)
(50 51)
(52 48)
(51 53)
(54 52)
(53 55)
(56 54)
(55 57)
(58 56)
(57 59)
(60 58)
(59 61)
(62 60)
(61 63)
(64 62)
(63 65)
(66 64)
(65 67)
(68 66)
(67 69)
(70 68)
(69 71)
(72 70)
(71 73)
(74 72)
(73 75)
(76 74)
(75 77)
(78 76)
(77 79)
(47 80)
(81 82)
(80 0)
(0 83)
(83 84)
(82 85)
(85 17)
(86 87)
(87 88)
(88 89)
(89 90)
(84 1)
(1 91)
(91 86)
(92 2)
(2 93)
(93 94)
(94 3)
(90 4)
(4 92)
(95 49)
(3 95)
(96 97)
(97 98)
(98 99)
(99 100)
(100 101)
(101 81)
(102 96)
(78 103)
(103 104)
(104 105)
(105 106)
(106 107)
(107 5)
(5 108)
(108 6)
(6 102)
(109 110)
(14 109)
(111 7)
(112 113)
(7 114)
(114 46)
(115 112)
(110 116)
(116 117)
(117 118)
(118 119)
(119 120)
(120 121)
(121 122)
(122 123)
(124 79)
(125 8)
(113 126)
(126 127)
(127 128)
(129 9)
(50 125)
(130 10)
(10 115)
(128 11)
(11 131)
(131 111)
(8 132)
(132 133)
(12 130)
(133 12)
(134 124)
(123 13)
(13 129)
(9 135)
(135 136)
(137 134)
(136 137)
(7 0)
(11 1)
(10 4)
(12 2)
(8 3)
(9 5)
(13 6)
)

// * * * * * * * * * * * * * * * * * * * * * * * * * * * * * * * * * * * * * //


// ************************************************************************* //
