/*--------------------------------*- C++ -*----------------------------------*\
| =========                 |                                                 |
| \\      /  F ield         | OpenFOAM: The Open Source CFD Toolbox           |
|  \\    /   O peration     | Version:  v1912                                 |
|   \\  /    A nd           | Website:  www.openfoam.com                      |
|    \\/     M anipulation  |                                                 |
\*---------------------------------------------------------------------------*/
FoamFile
{
    version     2.0;
    format      ascii;
    class       featureEdgeMesh;
    location    "constant/triSurface";
    object      vane3.eMesh;
}
// * * * * * * * * * * * * * * * * * * * * * * * * * * * * * * * * * * * * * //


// points:

224
(
(0.0332242 -0.0200097 -1)
(0.0332242 -0.0200097 1)
(0.0488369 -0.0372936 1)
(0.0488369 -0.0372936 -1)
(0.0481633 -0.037783 1)
(0.047867 -0.0377361 1)
(0.0481633 -0.037783 -1)
(0.047867 -0.0377361 -1)
(0.033853 -0.0209118 -1)
(0.033853 -0.0209118 1)
(0.0332295 -0.0203097 1)
(0.0332295 -0.0203097 -1)
(0.0337038 -0.0200087 1)
(0.0337038 -0.0200087 -1)
(0.0341832 -0.0200227 1)
(0.0341832 -0.0200227 -1)
(0.034662 -0.0200516 1)
(0.034662 -0.0200516 -1)
(0.0351397 -0.0200953 1)
(0.0351397 -0.0200953 -1)
(0.0356157 -0.0201537 1)
(0.0356157 -0.0201537 -1)
(0.0360897 -0.0202269 1)
(0.0360897 -0.0202269 -1)
(0.0365612 -0.0203148 1)
(0.0365612 -0.0203148 -1)
(0.0370297 -0.0204173 1)
(0.0370297 -0.0204173 -1)
(0.0374949 -0.0205343 1)
(0.0374949 -0.0205343 -1)
(0.0379561 -0.0206657 1)
(0.0379561 -0.0206657 -1)
(0.0384131 -0.0208113 1)
(0.0384131 -0.0208113 -1)
(0.0388654 -0.020971 1)
(0.0388654 -0.020971 -1)
(0.0393125 -0.0211447 1)
(0.0393125 -0.0211447 -1)
(0.0397539 -0.0213322 1)
(0.0397539 -0.0213322 -1)
(0.0401894 -0.0215332 1)
(0.0401894 -0.0215332 -1)
(0.0406183 -0.0217478 1)
(0.0406183 -0.0217478 -1)
(0.0410405 -0.0219755 1)
(0.0410405 -0.0219755 -1)
(0.0414553 -0.0222162 1)
(0.0414553 -0.0222162 -1)
(0.0418625 -0.0224697 1)
(0.0418625 -0.0224697 -1)
(0.0422616 -0.0227356 1)
(0.0422616 -0.0227356 -1)
(0.0426523 -0.0230139 1)
(0.0426523 -0.0230139 -1)
(0.0430341 -0.0233041 1)
(0.0430341 -0.0233041 -1)
(0.0434068 -0.023606 1)
(0.0434068 -0.023606 -1)
(0.0437699 -0.0239194 1)
(0.0437699 -0.0239194 -1)
(0.0441231 -0.0242439 1)
(0.0441231 -0.0242439 -1)
(0.0444661 -0.0245792 1)
(0.0444661 -0.0245792 -1)
(0.0447984 -0.0249249 1)
(0.0447984 -0.0249249 -1)
(0.0451199 -0.0252808 1)
(0.0451199 -0.0252808 -1)
(0.0454302 -0.0256466 1)
(0.0454302 -0.0256466 -1)
(0.045729 -0.0260217 1)
(0.045729 -0.0260217 -1)
(0.0460161 -0.026406 1)
(0.0460161 -0.026406 -1)
(0.046291 -0.026799 1)
(0.046291 -0.026799 -1)
(0.0465536 -0.0272003 1)
(0.0465536 -0.0272003 -1)
(0.0468037 -0.0276096 1)
(0.0468037 -0.0276096 -1)
(0.0470409 -0.0280265 1)
(0.0470409 -0.0280265 -1)
(0.0472651 -0.0284505 1)
(0.0472651 -0.0284505 -1)
(0.0474759 -0.0288813 1)
(0.0474759 -0.0288813 -1)
(0.0476734 -0.0293184 1)
(0.0476734 -0.0293184 -1)
(0.0478571 -0.0297614 1)
(0.0478571 -0.0297614 -1)
(0.0480271 -0.0302099 1)
(0.0480271 -0.0302099 -1)
(0.048183 -0.0306635 1)
(0.048183 -0.0306635 -1)
(0.0483248 -0.0311217 1)
(0.0483248 -0.0311217 -1)
(0.0484522 -0.031584 1)
(0.0484522 -0.031584 -1)
(0.0485653 -0.0320501 1)
(0.0485653 -0.0320501 -1)
(0.0486639 -0.0325195 1)
(0.0486639 -0.0325195 -1)
(0.0487478 -0.0329918 1)
(0.0487478 -0.0329918 -1)
(0.048817 -0.0334663 1)
(0.048817 -0.0334663 -1)
(0.0488715 -0.0339429 1)
(0.0488715 -0.0339429 -1)
(0.0489112 -0.0344208 1)
(0.0489112 -0.0344208 -1)
(0.048936 -0.0348998 1)
(0.048936 -0.0348998 -1)
(0.048946 -0.0353794 1)
(0.048946 -0.0353794 -1)
(0.048941 -0.035859 1)
(0.048941 -0.035859 -1)
(0.0489212 -0.0363382 1)
(0.0489212 -0.0363382 -1)
(0.0488865 -0.0368165 1)
(0.0488865 -0.0368165 -1)
(0.0479327 -0.0372731 -1)
(0.0479327 -0.0372731 1)
(0.0479835 -0.0368083 -1)
(0.0479835 -0.0368083 1)
(0.0480194 -0.036342 -1)
(0.0480194 -0.036342 1)
(0.0480402 -0.0358748 -1)
(0.0480402 -0.0358748 1)
(0.0480461 -0.0354072 -1)
(0.0480461 -0.0354072 1)
(0.0480369 -0.0349397 -1)
(0.0480369 -0.0349397 1)
(0.0480126 -0.0344727 -1)
(0.0480126 -0.0344727 1)
(0.0479734 -0.0340067 -1)
(0.0479734 -0.0340067 1)
(0.0479193 -0.0335422 -1)
(0.0479193 -0.0335422 1)
(0.0478502 -0.0330797 -1)
(0.0478502 -0.0330797 1)
(0.0477663 -0.0326197 -1)
(0.0477663 -0.0326197 1)
(0.0476677 -0.0321626 -1)
(0.0476677 -0.0321626 1)
(0.0475545 -0.0317089 -1)
(0.0475545 -0.0317089 1)
(0.0474267 -0.031259 -1)
(0.0474267 -0.031259 1)
(0.0472846 -0.0308135 -1)
(0.0472846 -0.0308135 1)
(0.0471281 -0.0303728 -1)
(0.0471281 -0.0303728 1)
(0.0469577 -0.0299374 -1)
(0.0469577 -0.0299374 1)
(0.0467733 -0.0295076 -1)
(0.0467733 -0.0295076 1)
(0.0465752 -0.029084 -1)
(0.0465752 -0.029084 1)
(0.0463636 -0.028667 -1)
(0.0463636 -0.028667 1)
(0.0461387 -0.028257 -1)
(0.0461387 -0.028257 1)
(0.0459008 -0.0278545 -1)
(0.0459008 -0.0278545 1)
(0.04565 -0.0274598 -1)
(0.04565 -0.0274598 1)
(0.0453867 -0.0270733 -1)
(0.0453867 -0.0270733 1)
(0.0451111 -0.0266955 -1)
(0.0451111 -0.0266955 1)
(0.0448235 -0.0263268 -1)
(0.0448235 -0.0263268 1)
(0.0445242 -0.0259675 -1)
(0.0445242 -0.0259675 1)
(0.0442135 -0.025618 -1)
(0.0442135 -0.025618 1)
(0.0438918 -0.0252786 -1)
(0.0438918 -0.0252786 1)
(0.0435593 -0.0249498 -1)
(0.0435593 -0.0249498 1)
(0.0432164 -0.0246318 -1)
(0.0432164 -0.0246318 1)
(0.0428635 -0.024325 -1)
(0.0428635 -0.024325 1)
(0.0425009 -0.0240297 -1)
(0.0425009 -0.0240297 1)
(0.042129 -0.0237462 -1)
(0.042129 -0.0237462 1)
(0.0417482 -0.0234748 -1)
(0.0417482 -0.0234748 1)
(0.0413588 -0.0232158 -1)
(0.0413588 -0.0232158 1)
(0.0409614 -0.0229694 -1)
(0.0409614 -0.0229694 1)
(0.0405562 -0.0227359 -1)
(0.0405562 -0.0227359 1)
(0.0401437 -0.0225156 -1)
(0.0401437 -0.0225156 1)
(0.0397244 -0.0223086 -1)
(0.0397244 -0.0223086 1)
(0.0392987 -0.0221152 -1)
(0.0392987 -0.0221152 1)
(0.0388669 -0.0219356 -1)
(0.0388669 -0.0219356 1)
(0.0384296 -0.0217699 -1)
(0.0384296 -0.0217699 1)
(0.0379872 -0.0216184 -1)
(0.0379872 -0.0216184 1)
(0.0375402 -0.0214812 -1)
(0.0375402 -0.0214812 1)
(0.0370889 -0.0213584 -1)
(0.0370889 -0.0213584 1)
(0.036634 -0.0212502 -1)
(0.036634 -0.0212502 1)
(0.0361758 -0.0211566 -1)
(0.0361758 -0.0211566 1)
(0.0357149 -0.0210778 -1)
(0.0357149 -0.0210778 1)
(0.0352516 -0.0210139 -1)
(0.0352516 -0.0210139 1)
(0.0347866 -0.0209649 -1)
(0.0347866 -0.0209649 1)
(0.0343202 -0.0209308 -1)
(0.0343202 -0.0209308 1)
)


// edges:

230
(
(0 1)
(1 12)
(13 0)
(12 14)
(15 13)
(14 16)
(17 15)
(16 18)
(19 17)
(18 20)
(21 19)
(20 22)
(23 21)
(22 24)
(25 23)
(24 26)
(27 25)
(26 28)
(29 27)
(28 30)
(31 29)
(30 32)
(33 31)
(32 34)
(35 33)
(34 36)
(37 35)
(36 38)
(39 37)
(38 40)
(41 39)
(40 42)
(43 41)
(42 44)
(45 43)
(44 46)
(47 45)
(46 48)
(49 47)
(48 50)
(51 49)
(50 52)
(53 51)
(52 54)
(55 53)
(54 56)
(57 55)
(56 58)
(59 57)
(58 60)
(61 59)
(60 62)
(63 61)
(62 64)
(65 63)
(64 66)
(67 65)
(66 68)
(69 67)
(68 70)
(71 69)
(70 72)
(73 71)
(72 74)
(75 73)
(74 76)
(77 75)
(76 78)
(79 77)
(78 80)
(81 79)
(80 82)
(83 81)
(82 84)
(85 83)
(84 86)
(87 85)
(86 88)
(89 87)
(88 90)
(91 89)
(90 92)
(93 91)
(92 94)
(95 93)
(94 96)
(97 95)
(96 98)
(99 97)
(98 100)
(101 99)
(100 102)
(103 101)
(102 104)
(105 103)
(104 106)
(107 105)
(106 108)
(109 107)
(108 110)
(111 109)
(110 112)
(113 111)
(112 114)
(115 113)
(114 116)
(117 115)
(116 118)
(119 117)
(118 2)
(3 119)
(2 3)
(4 5)
(6 4)
(5 7)
(7 6)
(120 7)
(5 121)
(122 120)
(121 123)
(124 122)
(123 125)
(126 124)
(125 127)
(128 126)
(127 129)
(130 128)
(129 131)
(132 130)
(131 133)
(134 132)
(133 135)
(136 134)
(135 137)
(138 136)
(137 139)
(140 138)
(139 141)
(142 140)
(141 143)
(144 142)
(143 145)
(146 144)
(145 147)
(148 146)
(147 149)
(150 148)
(149 151)
(152 150)
(151 153)
(154 152)
(153 155)
(156 154)
(155 157)
(158 156)
(157 159)
(160 158)
(159 161)
(162 160)
(161 163)
(164 162)
(163 165)
(166 164)
(165 167)
(168 166)
(167 169)
(170 168)
(169 171)
(172 170)
(171 173)
(174 172)
(173 175)
(176 174)
(175 177)
(178 176)
(177 179)
(180 178)
(179 181)
(182 180)
(181 183)
(184 182)
(183 185)
(186 184)
(185 187)
(188 186)
(187 189)
(190 188)
(189 191)
(192 190)
(191 193)
(194 192)
(193 195)
(196 194)
(195 197)
(198 196)
(197 199)
(200 198)
(199 201)
(202 200)
(201 203)
(204 202)
(203 205)
(206 204)
(205 207)
(208 206)
(207 209)
(210 208)
(209 211)
(212 210)
(211 213)
(214 212)
(213 215)
(216 214)
(215 217)
(218 216)
(217 219)
(220 218)
(219 221)
(222 220)
(221 223)
(8 222)
(223 9)
(9 8)
(10 1)
(11 10)
(0 11)
(8 11)
(3 6)
(10 9)
(4 2)
)

// * * * * * * * * * * * * * * * * * * * * * * * * * * * * * * * * * * * * * //


// ************************************************************************* //
