/*--------------------------------*- C++ -*----------------------------------*\
| =========                 |                                                 |
| \\      /  F ield         | OpenFOAM: The Open Source CFD Toolbox           |
|  \\    /   O peration     | Version:  v1912                                 |
|   \\  /    A nd           | Website:  www.openfoam.com                      |
|    \\/     M anipulation  |                                                 |
\*---------------------------------------------------------------------------*/
FoamFile
{
    version     2.0;
    format      ascii;
    class       featureEdgeMesh;
    location    "constant/triSurface";
    object      vane9.eMesh;
}
// * * * * * * * * * * * * * * * * * * * * * * * * * * * * * * * * * * * * * //


// points:

138
(
(1.5747 -0.122661 -1)
(1.57351 -0.124754 -1)
(1.56675 -0.125208 -1)
(1.56525 -0.123199 -1)
(1.56822 -0.126025 -1)
(1.47062 -0.028845 -1)
(1.47006 -0.0272584 -1)
(1.5747 -0.122661 1)
(1.56525 -0.123199 1)
(1.47062 -0.028845 1)
(1.56822 -0.126025 1)
(1.57351 -0.124754 1)
(1.56675 -0.125208 1)
(1.47006 -0.0272584 1)
(1.47524 -0.0214238 1)
(1.48485 -0.0223485 1)
(1.48485 -0.0223485 -1)
(1.47524 -0.0214238 -1)
(1.49433 -0.0241511 1)
(1.49433 -0.0241511 -1)
(1.5036 -0.0268162 1)
(1.5036 -0.0268162 -1)
(1.51259 -0.0303214 1)
(1.51259 -0.0303214 -1)
(1.52122 -0.0346371 1)
(1.52122 -0.0346371 -1)
(1.52942 -0.039727 1)
(1.52942 -0.039727 -1)
(1.53712 -0.0455478 1)
(1.53712 -0.0455478 -1)
(1.54425 -0.0520507 1)
(1.54425 -0.0520507 -1)
(1.55075 -0.0591805 1)
(1.55075 -0.0591805 -1)
(1.55657 -0.0668771 1)
(1.55657 -0.0668771 -1)
(1.56166 -0.0750756 1)
(1.56166 -0.0750756 -1)
(1.56598 -0.0837066 1)
(1.56598 -0.0837066 -1)
(1.56948 -0.0926975 1)
(1.56948 -0.0926975 -1)
(1.57215 -0.101972 1)
(1.57215 -0.101972 -1)
(1.57395 -0.111452 1)
(1.57395 -0.111452 -1)
(1.57488 -0.121058 1)
(1.57488 -0.121058 -1)
(1.56397 -0.11229 -1)
(1.56489 -0.121558 -1)
(1.56489 -0.121558 1)
(1.56397 -0.11229 1)
(1.56214 -0.103158 -1)
(1.56214 -0.103158 1)
(1.55944 -0.0942483 -1)
(1.55944 -0.0942483 1)
(1.55587 -0.0856463 -1)
(1.55587 -0.0856463 1)
(1.55147 -0.0774348 -1)
(1.55147 -0.0774348 1)
(1.5463 -0.069693 -1)
(1.5463 -0.069693 1)
(1.54039 -0.0624949 -1)
(1.54039 -0.0624949 1)
(1.53381 -0.0559099 -1)
(1.53381 -0.0559099 1)
(1.52661 -0.0500012 -1)
(1.52661 -0.0500012 1)
(1.51887 -0.0448255 -1)
(1.51887 -0.0448255 1)
(1.51065 -0.0404324 -1)
(1.51065 -0.0404324 1)
(1.50205 -0.0368644 -1)
(1.50205 -0.0368644 1)
(1.49314 -0.0341556 -1)
(1.49314 -0.0341556 1)
(1.48401 -0.032332 -1)
(1.48401 -0.032332 1)
(1.47474 -0.0314113 -1)
(1.47474 -0.0314113 1)
(1.57485 -0.121867 -1)
(1.47288 -0.0218857 -1)
(1.47364 -0.0216042 -1)
(1.57441 -0.12342 -1)
(1.57401 -0.124124 -1)
(1.47443 -0.0214489 -1)
(1.57222 -0.125728 -1)
(1.57148 -0.126047 -1)
(1.57069 -0.126242 -1)
(1.56988 -0.126307 -1)
(1.56904 -0.126236 -1)
(1.5729 -0.125293 -1)
(1.56746 -0.125679 -1)
(1.56614 -0.124627 -1)
(1.56564 -0.123951 -1)
(1.565 -0.122394 -1)
(1.47006 -0.0256107 -1)
(1.47025 -0.0248249 -1)
(1.47057 -0.024081 -1)
(1.47101 -0.0233982 -1)
(1.47155 -0.0227947 -1)
(1.47218 -0.0222861 -1)
(1.46999 -0.0264175 -1)
(1.47391 -0.0312981 -1)
(1.4731 -0.0310459 -1)
(1.47235 -0.0306619 -1)
(1.47167 -0.0301569 -1)
(1.47109 -0.0295455 -1)
(1.47028 -0.0280753 -1)
(1.47443 -0.0214489 1)
(1.47364 -0.0216042 1)
(1.57441 -0.12342 1)
(1.56988 -0.126307 1)
(1.57069 -0.126242 1)
(1.57485 -0.121867 1)
(1.56904 -0.126236 1)
(1.47288 -0.0218857 1)
(1.47218 -0.0222861 1)
(1.47155 -0.0227947 1)
(1.47101 -0.0233982 1)
(1.47057 -0.024081 1)
(1.47025 -0.0248249 1)
(1.47006 -0.0256107 1)
(1.46999 -0.0264175 1)
(1.47391 -0.0312981 1)
(1.565 -0.122394 1)
(1.57148 -0.126047 1)
(1.57222 -0.125728 1)
(1.5729 -0.125293 1)
(1.47028 -0.0280753 1)
(1.56746 -0.125679 1)
(1.57401 -0.124124 1)
(1.56564 -0.123951 1)
(1.56614 -0.124627 1)
(1.4731 -0.0310459 1)
(1.47109 -0.0295455 1)
(1.47167 -0.0301569 1)
(1.47235 -0.0306619 1)
)


// edges:

145
(
(14 15)
(16 17)
(15 18)
(19 16)
(18 20)
(21 19)
(20 22)
(23 21)
(22 24)
(25 23)
(24 26)
(27 25)
(26 28)
(29 27)
(28 30)
(31 29)
(30 32)
(33 31)
(32 34)
(35 33)
(34 36)
(37 35)
(36 38)
(39 37)
(38 40)
(41 39)
(40 42)
(43 41)
(42 44)
(45 43)
(44 46)
(47 45)
(48 49)
(50 51)
(52 48)
(51 53)
(54 52)
(53 55)
(56 54)
(55 57)
(58 56)
(57 59)
(60 58)
(59 61)
(62 60)
(61 63)
(64 62)
(63 65)
(66 64)
(65 67)
(68 66)
(67 69)
(70 68)
(69 71)
(72 70)
(71 73)
(74 72)
(73 75)
(76 74)
(75 77)
(78 76)
(77 79)
(47 80)
(81 82)
(80 0)
(0 83)
(83 84)
(82 85)
(85 17)
(86 87)
(87 88)
(88 89)
(89 90)
(84 1)
(1 91)
(91 86)
(92 2)
(2 93)
(93 94)
(94 3)
(90 4)
(4 92)
(95 49)
(3 95)
(96 97)
(97 98)
(98 99)
(99 100)
(100 101)
(101 81)
(102 96)
(78 103)
(103 104)
(104 105)
(105 106)
(106 107)
(107 5)
(5 108)
(108 6)
(6 102)
(109 110)
(14 109)
(111 7)
(112 113)
(7 114)
(114 46)
(115 112)
(110 116)
(116 117)
(117 118)
(118 119)
(119 120)
(120 121)
(121 122)
(122 123)
(124 79)
(125 8)
(113 126)
(126 127)
(127 128)
(129 9)
(50 125)
(130 10)
(10 115)
(128 11)
(11 131)
(131 111)
(8 132)
(132 133)
(12 130)
(133 12)
(134 124)
(123 13)
(13 129)
(9 135)
(135 136)
(137 134)
(136 137)
(7 0)
(11 1)
(10 4)
(12 2)
(8 3)
(9 5)
(13 6)
)

// * * * * * * * * * * * * * * * * * * * * * * * * * * * * * * * * * * * * * //


// ************************************************************************* //
