/*--------------------------------*- C++ -*----------------------------------*\
| =========                 |                                                 |
| \\      /  F ield         | OpenFOAM: The Open Source CFD Toolbox           |
|  \\    /   O peration     | Version:  v1912                                 |
|   \\  /    A nd           | Website:  www.openfoam.com                      |
|    \\/     M anipulation  |                                                 |
\*---------------------------------------------------------------------------*/
FoamFile
{
    version     2.0;
    format      ascii;
    class       featureEdgeMesh;
    location    "constant/triSurface";
    object      vane4.eMesh;
}
// * * * * * * * * * * * * * * * * * * * * * * * * * * * * * * * * * * * * * //


// points:

138
(
(1.3147 -0.385361 -1)
(1.31351 -0.387454 -1)
(1.30675 -0.387908 -1)
(1.30525 -0.385899 -1)
(1.30822 -0.388725 -1)
(1.21062 -0.291545 -1)
(1.21006 -0.289958 -1)
(1.3147 -0.385361 1)
(1.30525 -0.385899 1)
(1.21062 -0.291545 1)
(1.30822 -0.388725 1)
(1.31351 -0.387454 1)
(1.30675 -0.387908 1)
(1.21006 -0.289958 1)
(1.21524 -0.284124 1)
(1.22485 -0.285048 1)
(1.22485 -0.285048 -1)
(1.21524 -0.284124 -1)
(1.23433 -0.286851 1)
(1.23433 -0.286851 -1)
(1.2436 -0.289516 1)
(1.2436 -0.289516 -1)
(1.25259 -0.293021 1)
(1.25259 -0.293021 -1)
(1.26122 -0.297337 1)
(1.26122 -0.297337 -1)
(1.26942 -0.302427 1)
(1.26942 -0.302427 -1)
(1.27712 -0.308248 1)
(1.27712 -0.308248 -1)
(1.28425 -0.314751 1)
(1.28425 -0.314751 -1)
(1.29075 -0.32188 1)
(1.29075 -0.32188 -1)
(1.29657 -0.329577 1)
(1.29657 -0.329577 -1)
(1.30166 -0.337776 1)
(1.30166 -0.337776 -1)
(1.30598 -0.346407 1)
(1.30598 -0.346407 -1)
(1.30948 -0.355398 1)
(1.30948 -0.355398 -1)
(1.31215 -0.364672 1)
(1.31215 -0.364672 -1)
(1.31395 -0.374152 1)
(1.31395 -0.374152 -1)
(1.31488 -0.383758 1)
(1.31488 -0.383758 -1)
(1.30397 -0.37499 -1)
(1.30489 -0.384258 -1)
(1.30489 -0.384258 1)
(1.30397 -0.37499 1)
(1.30214 -0.365858 -1)
(1.30214 -0.365858 1)
(1.29944 -0.356948 -1)
(1.29944 -0.356948 1)
(1.29587 -0.348346 -1)
(1.29587 -0.348346 1)
(1.29147 -0.340135 -1)
(1.29147 -0.340135 1)
(1.2863 -0.332393 -1)
(1.2863 -0.332393 1)
(1.28039 -0.325195 -1)
(1.28039 -0.325195 1)
(1.27381 -0.31861 -1)
(1.27381 -0.31861 1)
(1.26661 -0.312701 -1)
(1.26661 -0.312701 1)
(1.25887 -0.307525 -1)
(1.25887 -0.307525 1)
(1.25065 -0.303132 -1)
(1.25065 -0.303132 1)
(1.24205 -0.299564 -1)
(1.24205 -0.299564 1)
(1.23314 -0.296856 -1)
(1.23314 -0.296856 1)
(1.22401 -0.295032 -1)
(1.22401 -0.295032 1)
(1.21474 -0.294111 -1)
(1.21474 -0.294111 1)
(1.31485 -0.384567 -1)
(1.21288 -0.284586 -1)
(1.21364 -0.284304 -1)
(1.31441 -0.38612 -1)
(1.31401 -0.386824 -1)
(1.21443 -0.284149 -1)
(1.31222 -0.388428 -1)
(1.31148 -0.388747 -1)
(1.31069 -0.388942 -1)
(1.30988 -0.389007 -1)
(1.30904 -0.388936 -1)
(1.3129 -0.387993 -1)
(1.30746 -0.388379 -1)
(1.30614 -0.387327 -1)
(1.30564 -0.386651 -1)
(1.305 -0.385094 -1)
(1.21006 -0.288311 -1)
(1.21025 -0.287525 -1)
(1.21057 -0.286781 -1)
(1.21101 -0.286098 -1)
(1.21155 -0.285495 -1)
(1.21218 -0.284986 -1)
(1.20999 -0.289117 -1)
(1.21391 -0.293998 -1)
(1.2131 -0.293746 -1)
(1.21235 -0.293362 -1)
(1.21167 -0.292857 -1)
(1.21109 -0.292245 -1)
(1.21028 -0.290775 -1)
(1.21443 -0.284149 1)
(1.21364 -0.284304 1)
(1.31441 -0.38612 1)
(1.30988 -0.389007 1)
(1.31069 -0.388942 1)
(1.31485 -0.384567 1)
(1.30904 -0.388936 1)
(1.21288 -0.284586 1)
(1.21218 -0.284986 1)
(1.21155 -0.285495 1)
(1.21101 -0.286098 1)
(1.21057 -0.286781 1)
(1.21025 -0.287525 1)
(1.21006 -0.288311 1)
(1.20999 -0.289117 1)
(1.21391 -0.293998 1)
(1.305 -0.385094 1)
(1.31148 -0.388747 1)
(1.31222 -0.388428 1)
(1.3129 -0.387993 1)
(1.21028 -0.290775 1)
(1.30746 -0.388379 1)
(1.31401 -0.386824 1)
(1.30564 -0.386651 1)
(1.30614 -0.387327 1)
(1.2131 -0.293746 1)
(1.21109 -0.292245 1)
(1.21167 -0.292857 1)
(1.21235 -0.293362 1)
)


// edges:

145
(
(14 15)
(16 17)
(15 18)
(19 16)
(18 20)
(21 19)
(20 22)
(23 21)
(22 24)
(25 23)
(24 26)
(27 25)
(26 28)
(29 27)
(28 30)
(31 29)
(30 32)
(33 31)
(32 34)
(35 33)
(34 36)
(37 35)
(36 38)
(39 37)
(38 40)
(41 39)
(40 42)
(43 41)
(42 44)
(45 43)
(44 46)
(47 45)
(48 49)
(50 51)
(52 48)
(51 53)
(54 52)
(53 55)
(56 54)
(55 57)
(58 56)
(57 59)
(60 58)
(59 61)
(62 60)
(61 63)
(64 62)
(63 65)
(66 64)
(65 67)
(68 66)
(67 69)
(70 68)
(69 71)
(72 70)
(71 73)
(74 72)
(73 75)
(76 74)
(75 77)
(78 76)
(77 79)
(47 80)
(81 82)
(80 0)
(0 83)
(83 84)
(82 85)
(85 17)
(86 87)
(87 88)
(88 89)
(89 90)
(84 1)
(1 91)
(91 86)
(92 2)
(2 93)
(93 94)
(94 3)
(90 4)
(4 92)
(95 49)
(3 95)
(96 97)
(97 98)
(98 99)
(99 100)
(100 101)
(101 81)
(102 96)
(78 103)
(103 104)
(104 105)
(105 106)
(106 107)
(107 5)
(5 108)
(108 6)
(6 102)
(109 110)
(14 109)
(111 7)
(112 113)
(7 114)
(114 46)
(115 112)
(110 116)
(116 117)
(117 118)
(118 119)
(119 120)
(120 121)
(121 122)
(122 123)
(124 79)
(125 8)
(113 126)
(126 127)
(127 128)
(129 9)
(50 125)
(130 10)
(10 115)
(128 11)
(11 131)
(131 111)
(8 132)
(132 133)
(12 130)
(133 12)
(134 124)
(123 13)
(13 129)
(9 135)
(135 136)
(137 134)
(136 137)
(7 0)
(11 1)
(10 4)
(12 2)
(8 3)
(9 5)
(13 6)
)

// * * * * * * * * * * * * * * * * * * * * * * * * * * * * * * * * * * * * * //


// ************************************************************************* //
