/*--------------------------------*- C++ -*----------------------------------*\
| =========                 |                                                 |
| \\      /  F ield         | OpenFOAM: The Open Source CFD Toolbox           |
|  \\    /   O peration     | Version:  v1912                                 |
|   \\  /    A nd           | Website:  www.openfoam.com                      |
|    \\/     M anipulation  |                                                 |
\*---------------------------------------------------------------------------*/
FoamFile
{
    version     2.0;
    format      ascii;
    class       featureEdgeMesh;
    location    "constant/triSurface";
    object      vane12.eMesh;
}
// * * * * * * * * * * * * * * * * * * * * * * * * * * * * * * * * * * * * * //


// points:

138
(
(1.7347 0.0352388 -1)
(1.73351 0.0331464 -1)
(1.72675 0.0326917 -1)
(1.72525 0.0347009 -1)
(1.72822 0.0318753 -1)
(1.63062 0.129055 -1)
(1.63006 0.130642 -1)
(1.7347 0.0352388 1)
(1.72525 0.0347009 1)
(1.63062 0.129055 1)
(1.72822 0.0318753 1)
(1.73351 0.0331464 1)
(1.72675 0.0326917 1)
(1.63006 0.130642 1)
(1.63524 0.136476 1)
(1.64485 0.135552 1)
(1.64485 0.135552 -1)
(1.63524 0.136476 -1)
(1.65433 0.133749 1)
(1.65433 0.133749 -1)
(1.6636 0.131084 1)
(1.6636 0.131084 -1)
(1.67259 0.127579 1)
(1.67259 0.127579 -1)
(1.68122 0.123263 1)
(1.68122 0.123263 -1)
(1.68942 0.118173 1)
(1.68942 0.118173 -1)
(1.69712 0.112352 1)
(1.69712 0.112352 -1)
(1.70425 0.105849 1)
(1.70425 0.105849 -1)
(1.71075 0.0987195 1)
(1.71075 0.0987195 -1)
(1.71657 0.0910229 1)
(1.71657 0.0910229 -1)
(1.72166 0.0828244 1)
(1.72166 0.0828244 -1)
(1.72598 0.0741934 1)
(1.72598 0.0741934 -1)
(1.72948 0.0652025 1)
(1.72948 0.0652025 -1)
(1.73215 0.055928 1)
(1.73215 0.055928 -1)
(1.73395 0.0464479 1)
(1.73395 0.0464479 -1)
(1.73488 0.0368425 1)
(1.73488 0.0368425 -1)
(1.72397 0.0456095 -1)
(1.72489 0.0363425 -1)
(1.72489 0.0363425 1)
(1.72397 0.0456095 1)
(1.72214 0.0547418 -1)
(1.72214 0.0547418 1)
(1.71944 0.0636517 -1)
(1.71944 0.0636517 1)
(1.71587 0.0722537 -1)
(1.71587 0.0722537 1)
(1.71147 0.0804652 -1)
(1.71147 0.0804652 1)
(1.7063 0.088207 -1)
(1.7063 0.088207 1)
(1.70039 0.0954051 -1)
(1.70039 0.0954051 1)
(1.69381 0.10199 -1)
(1.69381 0.10199 1)
(1.68661 0.107899 -1)
(1.68661 0.107899 1)
(1.67887 0.113075 -1)
(1.67887 0.113075 1)
(1.67065 0.117468 -1)
(1.67065 0.117468 1)
(1.66205 0.121036 -1)
(1.66205 0.121036 1)
(1.65314 0.123744 -1)
(1.65314 0.123744 1)
(1.64401 0.125568 -1)
(1.64401 0.125568 1)
(1.63474 0.126489 -1)
(1.63474 0.126489 1)
(1.73485 0.0360333 -1)
(1.63288 0.136014 -1)
(1.63364 0.136296 -1)
(1.73441 0.0344798 -1)
(1.73401 0.0337762 -1)
(1.63443 0.136451 -1)
(1.73222 0.032172 -1)
(1.73148 0.0318529 -1)
(1.73069 0.031658 -1)
(1.72988 0.0315925 -1)
(1.72904 0.0316637 -1)
(1.7329 0.032607 -1)
(1.72746 0.0322213 -1)
(1.72614 0.0332733 -1)
(1.72564 0.0339495 -1)
(1.725 0.0355062 -1)
(1.63006 0.132289 -1)
(1.63025 0.133075 -1)
(1.63057 0.133819 -1)
(1.63101 0.134502 -1)
(1.63155 0.135105 -1)
(1.63218 0.135614 -1)
(1.62999 0.131483 -1)
(1.63391 0.126602 -1)
(1.6331 0.126854 -1)
(1.63235 0.127238 -1)
(1.63167 0.127743 -1)
(1.63109 0.128355 -1)
(1.63028 0.129825 -1)
(1.63443 0.136451 1)
(1.63364 0.136296 1)
(1.73441 0.0344798 1)
(1.72988 0.0315925 1)
(1.73069 0.031658 1)
(1.73485 0.0360333 1)
(1.72904 0.0316637 1)
(1.63288 0.136014 1)
(1.63218 0.135614 1)
(1.63155 0.135105 1)
(1.63101 0.134502 1)
(1.63057 0.133819 1)
(1.63025 0.133075 1)
(1.63006 0.132289 1)
(1.62999 0.131483 1)
(1.63391 0.126602 1)
(1.725 0.0355062 1)
(1.73148 0.0318529 1)
(1.73222 0.032172 1)
(1.7329 0.032607 1)
(1.63028 0.129825 1)
(1.72746 0.0322213 1)
(1.73401 0.0337762 1)
(1.72564 0.0339495 1)
(1.72614 0.0332733 1)
(1.6331 0.126854 1)
(1.63109 0.128355 1)
(1.63167 0.127743 1)
(1.63235 0.127238 1)
)


// edges:

145
(
(14 15)
(16 17)
(15 18)
(19 16)
(18 20)
(21 19)
(20 22)
(23 21)
(22 24)
(25 23)
(24 26)
(27 25)
(26 28)
(29 27)
(28 30)
(31 29)
(30 32)
(33 31)
(32 34)
(35 33)
(34 36)
(37 35)
(36 38)
(39 37)
(38 40)
(41 39)
(40 42)
(43 41)
(42 44)
(45 43)
(44 46)
(47 45)
(48 49)
(50 51)
(52 48)
(51 53)
(54 52)
(53 55)
(56 54)
(55 57)
(58 56)
(57 59)
(60 58)
(59 61)
(62 60)
(61 63)
(64 62)
(63 65)
(66 64)
(65 67)
(68 66)
(67 69)
(70 68)
(69 71)
(72 70)
(71 73)
(74 72)
(73 75)
(76 74)
(75 77)
(78 76)
(77 79)
(47 80)
(81 82)
(80 0)
(0 83)
(83 84)
(82 85)
(85 17)
(86 87)
(87 88)
(88 89)
(89 90)
(84 1)
(1 91)
(91 86)
(92 2)
(2 93)
(93 94)
(94 3)
(90 4)
(4 92)
(95 49)
(3 95)
(96 97)
(97 98)
(98 99)
(99 100)
(100 101)
(101 81)
(102 96)
(78 103)
(103 104)
(104 105)
(105 106)
(106 107)
(107 5)
(5 108)
(108 6)
(6 102)
(109 110)
(14 109)
(111 7)
(112 113)
(7 114)
(114 46)
(115 112)
(110 116)
(116 117)
(117 118)
(118 119)
(119 120)
(120 121)
(121 122)
(122 123)
(124 79)
(125 8)
(113 126)
(126 127)
(127 128)
(129 9)
(50 125)
(130 10)
(10 115)
(128 11)
(11 131)
(131 111)
(8 132)
(132 133)
(12 130)
(133 12)
(134 124)
(123 13)
(13 129)
(9 135)
(135 136)
(137 134)
(136 137)
(7 0)
(11 1)
(10 4)
(12 2)
(8 3)
(9 5)
(13 6)
)

// * * * * * * * * * * * * * * * * * * * * * * * * * * * * * * * * * * * * * //


// ************************************************************************* //
