/*--------------------------------*- C++ -*----------------------------------*\
| =========                 |                                                 |
| \\      /  F ield         | OpenFOAM: The Open Source CFD Toolbox           |
|  \\    /   O peration     | Version:  v1912                                 |
|   \\  /    A nd           | Website:  www.openfoam.com                      |
|    \\/     M anipulation  |                                                 |
\*---------------------------------------------------------------------------*/
FoamFile
{
    version     2.0;
    format      ascii;
    class       featureEdgeMesh;
    location    "constant/triSurface";
    object      vane6.eMesh;
}
// * * * * * * * * * * * * * * * * * * * * * * * * * * * * * * * * * * * * * //


// points:

138
(
(1.86 -0.0254877 -1)
(1.86 -0.0254877 1)
(1.68049 0.176452 1)
(1.6997 0.174603 1)
(1.6997 0.174603 -1)
(1.68049 0.176452 -1)
(1.71866 0.170998 1)
(1.71866 0.170998 -1)
(1.73721 0.165668 1)
(1.73721 0.165668 -1)
(1.75519 0.158657 1)
(1.75519 0.158657 -1)
(1.77245 0.150026 1)
(1.77245 0.150026 -1)
(1.78885 0.139846 1)
(1.78885 0.139846 -1)
(1.80424 0.128204 1)
(1.80424 0.128204 -1)
(1.8185 0.115199 1)
(1.8185 0.115199 -1)
(1.8315 0.100939 1)
(1.8315 0.100939 -1)
(1.84315 0.0855457 1)
(1.84315 0.0855457 -1)
(1.85333 0.0691488 1)
(1.85333 0.0691488 -1)
(1.86196 0.0518867 1)
(1.86196 0.0518867 -1)
(1.86897 0.0339051 1)
(1.86897 0.0339051 -1)
(1.8743 0.0153563 1)
(1.8743 0.0153563 -1)
(1.8779 -0.0036045 1)
(1.8779 -0.0036045 -1)
(1.87975 -0.0228148 1)
(1.87975 -0.0228148 -1)
(1.85794 -0.0052808 -1)
(1.85978 -0.023815 -1)
(1.85978 -0.023815 1)
(1.85794 -0.0052808 1)
(1.85429 0.0129836 -1)
(1.85429 0.0129836 1)
(1.84887 0.0308036 -1)
(1.84887 0.0308036 1)
(1.84174 0.0480075 -1)
(1.84174 0.0480075 1)
(1.83295 0.0644303 -1)
(1.83295 0.0644303 1)
(1.8226 0.0799141 -1)
(1.8226 0.0799141 1)
(1.81078 0.0943101 -1)
(1.81078 0.0943101 1)
(1.79761 0.10748 -1)
(1.79761 0.10748 1)
(1.78321 0.119298 -1)
(1.78321 0.119298 1)
(1.76773 0.129649 -1)
(1.76773 0.129649 1)
(1.75131 0.138435 -1)
(1.75131 0.138435 1)
(1.7341 0.145571 -1)
(1.7341 0.145571 1)
(1.71628 0.150989 -1)
(1.71628 0.150989 1)
(1.69802 0.154636 -1)
(1.69802 0.154636 1)
(1.67948 0.156477 -1)
(1.67948 0.156477 1)
(1.8797 -0.0244333 -1)
(1.67576 0.175528 -1)
(1.67728 0.176091 -1)
(1.87939 -0.0260223 -1)
(1.87883 -0.0275401 -1)
(1.87803 -0.0289474 -1)
(1.67887 0.176402 -1)
(1.87444 -0.0321563 -1)
(1.87295 -0.0327944 -1)
(1.87138 -0.0331839 -1)
(1.86977 -0.033315 -1)
(1.86808 -0.0331727 -1)
(1.87701 -0.0302074 -1)
(1.8758 -0.0312861 -1)
(1.86491 -0.0320578 -1)
(1.86351 -0.0311168 -1)
(1.86229 -0.0299531 -1)
(1.86128 -0.028601 -1)
(1.86051 -0.027098 -1)
(1.86645 -0.0327492 -1)
(1.67012 0.168079 -1)
(1.67051 0.16965 -1)
(1.67114 0.171138 -1)
(1.67201 0.172503 -1)
(1.67309 0.173711 -1)
(1.67435 0.174728 -1)
(1.66999 0.166465 -1)
(1.67781 0.156704 -1)
(1.6762 0.157208 -1)
(1.6747 0.157976 -1)
(1.67335 0.158986 -1)
(1.67218 0.160209 -1)
(1.67124 0.16161 -1)
(1.67055 0.163149 -1)
(1.67013 0.164783 -1)
(1.67887 0.176402 1)
(1.67728 0.176091 1)
(1.87883 -0.0275401 1)
(1.87939 -0.0260223 1)
(1.86977 -0.033315 1)
(1.87138 -0.0331839 1)
(1.8797 -0.0244333 1)
(1.86808 -0.0331727 1)
(1.67576 0.175528 1)
(1.67435 0.174728 1)
(1.67309 0.173711 1)
(1.67201 0.172503 1)
(1.67114 0.171138 1)
(1.67051 0.16965 1)
(1.67012 0.168079 1)
(1.66999 0.166465 1)
(1.67781 0.156704 1)
(1.86051 -0.027098 1)
(1.87295 -0.0327944 1)
(1.87444 -0.0321563 1)
(1.8758 -0.0312861 1)
(1.67055 0.163149 1)
(1.67124 0.16161 1)
(1.86491 -0.0320578 1)
(1.86645 -0.0327492 1)
(1.87701 -0.0302074 1)
(1.87803 -0.0289474 1)
(1.86128 -0.028601 1)
(1.86229 -0.0299531 1)
(1.86351 -0.0311168 1)
(1.6762 0.157208 1)
(1.67013 0.164783 1)
(1.67218 0.160209 1)
(1.67335 0.158986 1)
(1.6747 0.157976 1)
)


// edges:

139
(
(2 3)
(4 5)
(3 6)
(7 4)
(6 8)
(9 7)
(8 10)
(11 9)
(10 12)
(13 11)
(12 14)
(15 13)
(14 16)
(17 15)
(16 18)
(19 17)
(18 20)
(21 19)
(20 22)
(23 21)
(22 24)
(25 23)
(24 26)
(27 25)
(26 28)
(29 27)
(28 30)
(31 29)
(30 32)
(33 31)
(32 34)
(35 33)
(36 37)
(38 39)
(40 36)
(39 41)
(42 40)
(41 43)
(44 42)
(43 45)
(46 44)
(45 47)
(48 46)
(47 49)
(50 48)
(49 51)
(52 50)
(51 53)
(54 52)
(53 55)
(56 54)
(55 57)
(58 56)
(57 59)
(60 58)
(59 61)
(62 60)
(61 63)
(64 62)
(63 65)
(66 64)
(65 67)
(35 68)
(69 70)
(68 71)
(71 72)
(72 73)
(70 74)
(74 5)
(75 76)
(76 77)
(77 78)
(78 79)
(73 80)
(80 81)
(81 75)
(82 83)
(83 84)
(84 85)
(85 86)
(79 87)
(87 82)
(0 37)
(86 0)
(88 89)
(89 90)
(90 91)
(91 92)
(92 93)
(93 69)
(94 88)
(66 95)
(95 96)
(96 97)
(97 98)
(98 99)
(99 100)
(100 101)
(101 102)
(102 94)
(103 104)
(2 103)
(105 106)
(107 108)
(106 109)
(109 34)
(110 107)
(104 111)
(111 112)
(112 113)
(113 114)
(114 115)
(115 116)
(116 117)
(117 118)
(119 67)
(1 120)
(108 121)
(121 122)
(122 123)
(124 125)
(38 1)
(126 127)
(127 110)
(123 128)
(128 129)
(129 105)
(120 130)
(130 131)
(132 126)
(131 132)
(133 119)
(118 134)
(134 124)
(125 135)
(135 136)
(137 133)
(136 137)
(1 0)
)

// * * * * * * * * * * * * * * * * * * * * * * * * * * * * * * * * * * * * * //


// ************************************************************************* //
