/*--------------------------------*- C++ -*----------------------------------*\
| =========                 |                                                 |
| \\      /  F ield         | OpenFOAM: The Open Source CFD Toolbox           |
|  \\    /   O peration     | Version:  v1912                                 |
|   \\  /    A nd           | Website:  www.openfoam.com                      |
|    \\/     M anipulation  |                                                 |
\*---------------------------------------------------------------------------*/
FoamFile
{
    version     2.0;
    format      ascii;
    class       featureEdgeMesh;
    location    "constant/triSurface";
    object      vane15.eMesh;
}
// * * * * * * * * * * * * * * * * * * * * * * * * * * * * * * * * * * * * * //


// points:

138
(
(1.8947 0.192639 -1)
(1.89351 0.190546 -1)
(1.88675 0.190092 -1)
(1.88525 0.192101 -1)
(1.88822 0.189275 -1)
(1.79062 0.286455 -1)
(1.79006 0.288042 -1)
(1.8947 0.192639 1)
(1.88525 0.192101 1)
(1.79062 0.286455 1)
(1.88822 0.189275 1)
(1.89351 0.190546 1)
(1.88675 0.190092 1)
(1.79006 0.288042 1)
(1.79524 0.293876 1)
(1.80485 0.292952 1)
(1.80485 0.292952 -1)
(1.79524 0.293876 -1)
(1.81433 0.291149 1)
(1.81433 0.291149 -1)
(1.8236 0.288484 1)
(1.8236 0.288484 -1)
(1.83259 0.284979 1)
(1.83259 0.284979 -1)
(1.84122 0.280663 1)
(1.84122 0.280663 -1)
(1.84942 0.275573 1)
(1.84942 0.275573 -1)
(1.85712 0.269752 1)
(1.85712 0.269752 -1)
(1.86425 0.263249 1)
(1.86425 0.263249 -1)
(1.87075 0.25612 1)
(1.87075 0.25612 -1)
(1.87657 0.248423 1)
(1.87657 0.248423 -1)
(1.88166 0.240224 1)
(1.88166 0.240224 -1)
(1.88598 0.231593 1)
(1.88598 0.231593 -1)
(1.88948 0.222602 1)
(1.88948 0.222602 -1)
(1.89215 0.213328 1)
(1.89215 0.213328 -1)
(1.89395 0.203848 1)
(1.89395 0.203848 -1)
(1.89488 0.194242 1)
(1.89488 0.194242 -1)
(1.88397 0.20301 -1)
(1.88489 0.193742 -1)
(1.88489 0.193742 1)
(1.88397 0.20301 1)
(1.88214 0.212142 -1)
(1.88214 0.212142 1)
(1.87944 0.221052 -1)
(1.87944 0.221052 1)
(1.87587 0.229654 -1)
(1.87587 0.229654 1)
(1.87147 0.237865 -1)
(1.87147 0.237865 1)
(1.8663 0.245607 -1)
(1.8663 0.245607 1)
(1.86039 0.252805 -1)
(1.86039 0.252805 1)
(1.85381 0.25939 -1)
(1.85381 0.25939 1)
(1.84661 0.265299 -1)
(1.84661 0.265299 1)
(1.83887 0.270475 -1)
(1.83887 0.270475 1)
(1.83065 0.274868 -1)
(1.83065 0.274868 1)
(1.82205 0.278436 -1)
(1.82205 0.278436 1)
(1.81314 0.281144 -1)
(1.81314 0.281144 1)
(1.80401 0.282968 -1)
(1.80401 0.282968 1)
(1.79474 0.283889 -1)
(1.79474 0.283889 1)
(1.89485 0.193433 -1)
(1.79288 0.293414 -1)
(1.79364 0.293696 -1)
(1.89441 0.19188 -1)
(1.89401 0.191176 -1)
(1.79443 0.293851 -1)
(1.89222 0.189572 -1)
(1.89148 0.189253 -1)
(1.89069 0.189058 -1)
(1.88988 0.188993 -1)
(1.88904 0.189064 -1)
(1.8929 0.190007 -1)
(1.88746 0.189621 -1)
(1.88614 0.190673 -1)
(1.88564 0.191349 -1)
(1.885 0.192906 -1)
(1.79006 0.289689 -1)
(1.79025 0.290475 -1)
(1.79057 0.291219 -1)
(1.79101 0.291902 -1)
(1.79155 0.292505 -1)
(1.79218 0.293014 -1)
(1.78999 0.288883 -1)
(1.79391 0.284002 -1)
(1.7931 0.284254 -1)
(1.79235 0.284638 -1)
(1.79167 0.285143 -1)
(1.79109 0.285755 -1)
(1.79028 0.287225 -1)
(1.79443 0.293851 1)
(1.79364 0.293696 1)
(1.89441 0.19188 1)
(1.88988 0.188993 1)
(1.89069 0.189058 1)
(1.89485 0.193433 1)
(1.88904 0.189064 1)
(1.79288 0.293414 1)
(1.79218 0.293014 1)
(1.79155 0.292505 1)
(1.79101 0.291902 1)
(1.79057 0.291219 1)
(1.79025 0.290475 1)
(1.79006 0.289689 1)
(1.78999 0.288883 1)
(1.79391 0.284002 1)
(1.885 0.192906 1)
(1.89148 0.189253 1)
(1.89222 0.189572 1)
(1.8929 0.190007 1)
(1.79028 0.287225 1)
(1.88746 0.189621 1)
(1.89401 0.191176 1)
(1.88564 0.191349 1)
(1.88614 0.190673 1)
(1.7931 0.284254 1)
(1.79109 0.285755 1)
(1.79167 0.285143 1)
(1.79235 0.284638 1)
)


// edges:

145
(
(14 15)
(16 17)
(15 18)
(19 16)
(18 20)
(21 19)
(20 22)
(23 21)
(22 24)
(25 23)
(24 26)
(27 25)
(26 28)
(29 27)
(28 30)
(31 29)
(30 32)
(33 31)
(32 34)
(35 33)
(34 36)
(37 35)
(36 38)
(39 37)
(38 40)
(41 39)
(40 42)
(43 41)
(42 44)
(45 43)
(44 46)
(47 45)
(48 49)
(50 51)
(52 48)
(51 53)
(54 52)
(53 55)
(56 54)
(55 57)
(58 56)
(57 59)
(60 58)
(59 61)
(62 60)
(61 63)
(64 62)
(63 65)
(66 64)
(65 67)
(68 66)
(67 69)
(70 68)
(69 71)
(72 70)
(71 73)
(74 72)
(73 75)
(76 74)
(75 77)
(78 76)
(77 79)
(47 80)
(81 82)
(80 0)
(0 83)
(83 84)
(82 85)
(85 17)
(86 87)
(87 88)
(88 89)
(89 90)
(84 1)
(1 91)
(91 86)
(92 2)
(2 93)
(93 94)
(94 3)
(90 4)
(4 92)
(95 49)
(3 95)
(96 97)
(97 98)
(98 99)
(99 100)
(100 101)
(101 81)
(102 96)
(78 103)
(103 104)
(104 105)
(105 106)
(106 107)
(107 5)
(5 108)
(108 6)
(6 102)
(109 110)
(14 109)
(111 7)
(112 113)
(7 114)
(114 46)
(115 112)
(110 116)
(116 117)
(117 118)
(118 119)
(119 120)
(120 121)
(121 122)
(122 123)
(124 79)
(125 8)
(113 126)
(126 127)
(127 128)
(129 9)
(50 125)
(130 10)
(10 115)
(128 11)
(11 131)
(131 111)
(8 132)
(132 133)
(12 130)
(133 12)
(134 124)
(123 13)
(13 129)
(9 135)
(135 136)
(137 134)
(136 137)
(7 0)
(11 1)
(10 4)
(12 2)
(8 3)
(9 5)
(13 6)
)

// * * * * * * * * * * * * * * * * * * * * * * * * * * * * * * * * * * * * * //


// ************************************************************************* //
