/*--------------------------------*- C++ -*----------------------------------*\
| =========                 |                                                 |
| \\      /  F ield         | OpenFOAM: The Open Source CFD Toolbox           |
|  \\    /   O peration     | Version:  v1912                                 |
|   \\  /    A nd           | Website:  www.openfoam.com                      |
|    \\/     M anipulation  |                                                 |
\*---------------------------------------------------------------------------*/
FoamFile
{
    version     2.0;
    format      ascii;
    class       featureEdgeMesh;
    location    "constant/triSurface";
    object      vane6.eMesh;
}
// * * * * * * * * * * * * * * * * * * * * * * * * * * * * * * * * * * * * * //


// points:

138
(
(1.4247 -0.280361 -1)
(1.42351 -0.282454 -1)
(1.41675 -0.282908 -1)
(1.41525 -0.280899 -1)
(1.41822 -0.283725 -1)
(1.32062 -0.186545 -1)
(1.32006 -0.184958 -1)
(1.4247 -0.280361 1)
(1.41525 -0.280899 1)
(1.32062 -0.186545 1)
(1.41822 -0.283725 1)
(1.42351 -0.282454 1)
(1.41675 -0.282908 1)
(1.32006 -0.184958 1)
(1.32524 -0.179124 1)
(1.33485 -0.180048 1)
(1.33485 -0.180048 -1)
(1.32524 -0.179124 -1)
(1.34433 -0.181851 1)
(1.34433 -0.181851 -1)
(1.3536 -0.184516 1)
(1.3536 -0.184516 -1)
(1.36259 -0.188021 1)
(1.36259 -0.188021 -1)
(1.37122 -0.192337 1)
(1.37122 -0.192337 -1)
(1.37942 -0.197427 1)
(1.37942 -0.197427 -1)
(1.38712 -0.203248 1)
(1.38712 -0.203248 -1)
(1.39425 -0.209751 1)
(1.39425 -0.209751 -1)
(1.40075 -0.21688 1)
(1.40075 -0.21688 -1)
(1.40657 -0.224577 1)
(1.40657 -0.224577 -1)
(1.41166 -0.232776 1)
(1.41166 -0.232776 -1)
(1.41598 -0.241407 1)
(1.41598 -0.241407 -1)
(1.41948 -0.250398 1)
(1.41948 -0.250398 -1)
(1.42215 -0.259672 1)
(1.42215 -0.259672 -1)
(1.42395 -0.269152 1)
(1.42395 -0.269152 -1)
(1.42488 -0.278758 1)
(1.42488 -0.278758 -1)
(1.41397 -0.26999 -1)
(1.41489 -0.279258 -1)
(1.41489 -0.279258 1)
(1.41397 -0.26999 1)
(1.41214 -0.260858 -1)
(1.41214 -0.260858 1)
(1.40944 -0.251948 -1)
(1.40944 -0.251948 1)
(1.40587 -0.243346 -1)
(1.40587 -0.243346 1)
(1.40147 -0.235135 -1)
(1.40147 -0.235135 1)
(1.3963 -0.227393 -1)
(1.3963 -0.227393 1)
(1.39039 -0.220195 -1)
(1.39039 -0.220195 1)
(1.38381 -0.21361 -1)
(1.38381 -0.21361 1)
(1.37661 -0.207701 -1)
(1.37661 -0.207701 1)
(1.36887 -0.202525 -1)
(1.36887 -0.202525 1)
(1.36065 -0.198132 -1)
(1.36065 -0.198132 1)
(1.35205 -0.194564 -1)
(1.35205 -0.194564 1)
(1.34314 -0.191856 -1)
(1.34314 -0.191856 1)
(1.33401 -0.190032 -1)
(1.33401 -0.190032 1)
(1.32474 -0.189111 -1)
(1.32474 -0.189111 1)
(1.42485 -0.279567 -1)
(1.32288 -0.179586 -1)
(1.32364 -0.179304 -1)
(1.42441 -0.28112 -1)
(1.42401 -0.281824 -1)
(1.32443 -0.179149 -1)
(1.42222 -0.283428 -1)
(1.42148 -0.283747 -1)
(1.42069 -0.283942 -1)
(1.41988 -0.284007 -1)
(1.41904 -0.283936 -1)
(1.4229 -0.282993 -1)
(1.41746 -0.283379 -1)
(1.41614 -0.282327 -1)
(1.41564 -0.281651 -1)
(1.415 -0.280094 -1)
(1.32006 -0.183311 -1)
(1.32025 -0.182525 -1)
(1.32057 -0.181781 -1)
(1.32101 -0.181098 -1)
(1.32155 -0.180495 -1)
(1.32218 -0.179986 -1)
(1.31999 -0.184117 -1)
(1.32391 -0.188998 -1)
(1.3231 -0.188746 -1)
(1.32235 -0.188362 -1)
(1.32167 -0.187857 -1)
(1.32109 -0.187245 -1)
(1.32028 -0.185775 -1)
(1.32443 -0.179149 1)
(1.32364 -0.179304 1)
(1.42441 -0.28112 1)
(1.41988 -0.284007 1)
(1.42069 -0.283942 1)
(1.42485 -0.279567 1)
(1.41904 -0.283936 1)
(1.32288 -0.179586 1)
(1.32218 -0.179986 1)
(1.32155 -0.180495 1)
(1.32101 -0.181098 1)
(1.32057 -0.181781 1)
(1.32025 -0.182525 1)
(1.32006 -0.183311 1)
(1.31999 -0.184117 1)
(1.32391 -0.188998 1)
(1.415 -0.280094 1)
(1.42148 -0.283747 1)
(1.42222 -0.283428 1)
(1.4229 -0.282993 1)
(1.32028 -0.185775 1)
(1.41746 -0.283379 1)
(1.42401 -0.281824 1)
(1.41564 -0.281651 1)
(1.41614 -0.282327 1)
(1.3231 -0.188746 1)
(1.32109 -0.187245 1)
(1.32167 -0.187857 1)
(1.32235 -0.188362 1)
)


// edges:

145
(
(14 15)
(16 17)
(15 18)
(19 16)
(18 20)
(21 19)
(20 22)
(23 21)
(22 24)
(25 23)
(24 26)
(27 25)
(26 28)
(29 27)
(28 30)
(31 29)
(30 32)
(33 31)
(32 34)
(35 33)
(34 36)
(37 35)
(36 38)
(39 37)
(38 40)
(41 39)
(40 42)
(43 41)
(42 44)
(45 43)
(44 46)
(47 45)
(48 49)
(50 51)
(52 48)
(51 53)
(54 52)
(53 55)
(56 54)
(55 57)
(58 56)
(57 59)
(60 58)
(59 61)
(62 60)
(61 63)
(64 62)
(63 65)
(66 64)
(65 67)
(68 66)
(67 69)
(70 68)
(69 71)
(72 70)
(71 73)
(74 72)
(73 75)
(76 74)
(75 77)
(78 76)
(77 79)
(47 80)
(81 82)
(80 0)
(0 83)
(83 84)
(82 85)
(85 17)
(86 87)
(87 88)
(88 89)
(89 90)
(84 1)
(1 91)
(91 86)
(92 2)
(2 93)
(93 94)
(94 3)
(90 4)
(4 92)
(95 49)
(3 95)
(96 97)
(97 98)
(98 99)
(99 100)
(100 101)
(101 81)
(102 96)
(78 103)
(103 104)
(104 105)
(105 106)
(106 107)
(107 5)
(5 108)
(108 6)
(6 102)
(109 110)
(14 109)
(111 7)
(112 113)
(7 114)
(114 46)
(115 112)
(110 116)
(116 117)
(117 118)
(118 119)
(119 120)
(120 121)
(121 122)
(122 123)
(124 79)
(125 8)
(113 126)
(126 127)
(127 128)
(129 9)
(50 125)
(130 10)
(10 115)
(128 11)
(11 131)
(131 111)
(8 132)
(132 133)
(12 130)
(133 12)
(134 124)
(123 13)
(13 129)
(9 135)
(135 136)
(137 134)
(136 137)
(7 0)
(11 1)
(10 4)
(12 2)
(8 3)
(9 5)
(13 6)
)

// * * * * * * * * * * * * * * * * * * * * * * * * * * * * * * * * * * * * * //


// ************************************************************************* //
