/*--------------------------------*- C++ -*----------------------------------*\
| =========                 |                                                 |
| \\      /  F ield         | OpenFOAM: The Open Source CFD Toolbox           |
|  \\    /   O peration     | Version:  v1912                                 |
|   \\  /    A nd           | Website:  www.openfoam.com                      |
|    \\/     M anipulation  |                                                 |
\*---------------------------------------------------------------------------*/
FoamFile
{
    version     2.0;
    format      ascii;
    class       featureEdgeMesh;
    location    "constant/triSurface";
    object      vane7.eMesh;
}
// * * * * * * * * * * * * * * * * * * * * * * * * * * * * * * * * * * * * * //


// points:

138
(
(1.97 0.0858123 -1)
(1.97 0.0858123 1)
(1.79049 0.287752 1)
(1.8097 0.285903 1)
(1.8097 0.285903 -1)
(1.79049 0.287752 -1)
(1.82866 0.282298 1)
(1.82866 0.282298 -1)
(1.84721 0.276968 1)
(1.84721 0.276968 -1)
(1.86519 0.269957 1)
(1.86519 0.269957 -1)
(1.88245 0.261326 1)
(1.88245 0.261326 -1)
(1.89885 0.251146 1)
(1.89885 0.251146 -1)
(1.91424 0.239504 1)
(1.91424 0.239504 -1)
(1.9285 0.226499 1)
(1.9285 0.226499 -1)
(1.9415 0.212239 1)
(1.9415 0.212239 -1)
(1.95315 0.196846 1)
(1.95315 0.196846 -1)
(1.96333 0.180449 1)
(1.96333 0.180449 -1)
(1.97196 0.163187 1)
(1.97196 0.163187 -1)
(1.97897 0.145205 1)
(1.97897 0.145205 -1)
(1.9843 0.126656 1)
(1.9843 0.126656 -1)
(1.9879 0.107696 1)
(1.9879 0.107696 -1)
(1.98975 0.0884852 1)
(1.98975 0.0884852 -1)
(1.96794 0.106019 -1)
(1.96978 0.087485 -1)
(1.96978 0.087485 1)
(1.96794 0.106019 1)
(1.96429 0.124284 -1)
(1.96429 0.124284 1)
(1.95887 0.142104 -1)
(1.95887 0.142104 1)
(1.95174 0.159307 -1)
(1.95174 0.159307 1)
(1.94295 0.17573 -1)
(1.94295 0.17573 1)
(1.9326 0.191214 -1)
(1.9326 0.191214 1)
(1.92078 0.20561 -1)
(1.92078 0.20561 1)
(1.90761 0.21878 -1)
(1.90761 0.21878 1)
(1.89321 0.230598 -1)
(1.89321 0.230598 1)
(1.87773 0.240949 -1)
(1.87773 0.240949 1)
(1.86131 0.249735 -1)
(1.86131 0.249735 1)
(1.8441 0.256871 -1)
(1.8441 0.256871 1)
(1.82628 0.262289 -1)
(1.82628 0.262289 1)
(1.80802 0.265936 -1)
(1.80802 0.265936 1)
(1.78948 0.267777 -1)
(1.78948 0.267777 1)
(1.9897 0.0868667 -1)
(1.78576 0.286828 -1)
(1.78728 0.287391 -1)
(1.98939 0.0852777 -1)
(1.98883 0.0837599 -1)
(1.98803 0.0823526 -1)
(1.78887 0.287702 -1)
(1.98444 0.0791437 -1)
(1.98295 0.0785056 -1)
(1.98138 0.0781161 -1)
(1.97977 0.077985 -1)
(1.97808 0.0781273 -1)
(1.98701 0.0810926 -1)
(1.9858 0.0800139 -1)
(1.97491 0.0792422 -1)
(1.97351 0.0801832 -1)
(1.97229 0.0813469 -1)
(1.97128 0.082699 -1)
(1.97051 0.084202 -1)
(1.97645 0.0785508 -1)
(1.78012 0.279379 -1)
(1.78051 0.28095 -1)
(1.78114 0.282438 -1)
(1.78201 0.283803 -1)
(1.78309 0.285011 -1)
(1.78435 0.286028 -1)
(1.77999 0.277765 -1)
(1.78781 0.268004 -1)
(1.7862 0.268508 -1)
(1.7847 0.269276 -1)
(1.78335 0.270286 -1)
(1.78218 0.271509 -1)
(1.78124 0.27291 -1)
(1.78055 0.274449 -1)
(1.78013 0.276083 -1)
(1.78887 0.287702 1)
(1.78728 0.287391 1)
(1.98883 0.0837599 1)
(1.98939 0.0852777 1)
(1.97977 0.077985 1)
(1.98138 0.0781161 1)
(1.9897 0.0868667 1)
(1.97808 0.0781273 1)
(1.78576 0.286828 1)
(1.78435 0.286028 1)
(1.78309 0.285011 1)
(1.78201 0.283803 1)
(1.78114 0.282438 1)
(1.78051 0.28095 1)
(1.78012 0.279379 1)
(1.77999 0.277765 1)
(1.78781 0.268004 1)
(1.97051 0.084202 1)
(1.98295 0.0785056 1)
(1.98444 0.0791437 1)
(1.9858 0.0800139 1)
(1.78055 0.274449 1)
(1.78124 0.27291 1)
(1.97491 0.0792422 1)
(1.97645 0.0785508 1)
(1.98701 0.0810926 1)
(1.98803 0.0823526 1)
(1.97128 0.082699 1)
(1.97229 0.0813469 1)
(1.97351 0.0801832 1)
(1.7862 0.268508 1)
(1.78013 0.276083 1)
(1.78218 0.271509 1)
(1.78335 0.270286 1)
(1.7847 0.269276 1)
)


// edges:

139
(
(2 3)
(4 5)
(3 6)
(7 4)
(6 8)
(9 7)
(8 10)
(11 9)
(10 12)
(13 11)
(12 14)
(15 13)
(14 16)
(17 15)
(16 18)
(19 17)
(18 20)
(21 19)
(20 22)
(23 21)
(22 24)
(25 23)
(24 26)
(27 25)
(26 28)
(29 27)
(28 30)
(31 29)
(30 32)
(33 31)
(32 34)
(35 33)
(36 37)
(38 39)
(40 36)
(39 41)
(42 40)
(41 43)
(44 42)
(43 45)
(46 44)
(45 47)
(48 46)
(47 49)
(50 48)
(49 51)
(52 50)
(51 53)
(54 52)
(53 55)
(56 54)
(55 57)
(58 56)
(57 59)
(60 58)
(59 61)
(62 60)
(61 63)
(64 62)
(63 65)
(66 64)
(65 67)
(35 68)
(69 70)
(68 71)
(71 72)
(72 73)
(70 74)
(74 5)
(75 76)
(76 77)
(77 78)
(78 79)
(73 80)
(80 81)
(81 75)
(82 83)
(83 84)
(84 85)
(85 86)
(79 87)
(87 82)
(0 37)
(86 0)
(88 89)
(89 90)
(90 91)
(91 92)
(92 93)
(93 69)
(94 88)
(66 95)
(95 96)
(96 97)
(97 98)
(98 99)
(99 100)
(100 101)
(101 102)
(102 94)
(103 104)
(2 103)
(105 106)
(107 108)
(106 109)
(109 34)
(110 107)
(104 111)
(111 112)
(112 113)
(113 114)
(114 115)
(115 116)
(116 117)
(117 118)
(119 67)
(1 120)
(108 121)
(121 122)
(122 123)
(124 125)
(38 1)
(126 127)
(127 110)
(123 128)
(128 129)
(129 105)
(120 130)
(130 131)
(132 126)
(131 132)
(133 119)
(118 134)
(134 124)
(125 135)
(135 136)
(137 133)
(136 137)
(1 0)
)

// * * * * * * * * * * * * * * * * * * * * * * * * * * * * * * * * * * * * * //


// ************************************************************************* //
