/*--------------------------------*- C++ -*----------------------------------*\
| =========                 |                                                 |
| \\      /  F ield         | OpenFOAM: The Open Source CFD Toolbox           |
|  \\    /   O peration     | Version:  v1912                                 |
|   \\  /    A nd           | Website:  www.openfoam.com                      |
|    \\/     M anipulation  |                                                 |
\*---------------------------------------------------------------------------*/
FoamFile
{
    version     2.0;
    format      ascii;
    class       featureEdgeMesh;
    location    "constant/triSurface";
    object      vane1.eMesh;
}
// * * * * * * * * * * * * * * * * * * * * * * * * * * * * * * * * * * * * * //


// points:

138
(
(1.1547 -0.543361 -1)
(1.15351 -0.545454 -1)
(1.14675 -0.545908 -1)
(1.14525 -0.543899 -1)
(1.14822 -0.546725 -1)
(1.05062 -0.449545 -1)
(1.05006 -0.447958 -1)
(1.1547 -0.543361 1)
(1.14525 -0.543899 1)
(1.05062 -0.449545 1)
(1.14822 -0.546725 1)
(1.15351 -0.545454 1)
(1.14675 -0.545908 1)
(1.05006 -0.447958 1)
(1.05524 -0.442124 1)
(1.06485 -0.443048 1)
(1.06485 -0.443048 -1)
(1.05524 -0.442124 -1)
(1.07433 -0.444851 1)
(1.07433 -0.444851 -1)
(1.0836 -0.447516 1)
(1.0836 -0.447516 -1)
(1.09259 -0.451021 1)
(1.09259 -0.451021 -1)
(1.10122 -0.455337 1)
(1.10122 -0.455337 -1)
(1.10942 -0.460427 1)
(1.10942 -0.460427 -1)
(1.11712 -0.466248 1)
(1.11712 -0.466248 -1)
(1.12425 -0.472751 1)
(1.12425 -0.472751 -1)
(1.13075 -0.47988 1)
(1.13075 -0.47988 -1)
(1.13657 -0.487577 1)
(1.13657 -0.487577 -1)
(1.14166 -0.495776 1)
(1.14166 -0.495776 -1)
(1.14598 -0.504407 1)
(1.14598 -0.504407 -1)
(1.14948 -0.513398 1)
(1.14948 -0.513398 -1)
(1.15215 -0.522672 1)
(1.15215 -0.522672 -1)
(1.15395 -0.532152 1)
(1.15395 -0.532152 -1)
(1.15488 -0.541758 1)
(1.15488 -0.541758 -1)
(1.14397 -0.53299 -1)
(1.14489 -0.542258 -1)
(1.14489 -0.542258 1)
(1.14397 -0.53299 1)
(1.14214 -0.523858 -1)
(1.14214 -0.523858 1)
(1.13944 -0.514948 -1)
(1.13944 -0.514948 1)
(1.13587 -0.506346 -1)
(1.13587 -0.506346 1)
(1.13147 -0.498135 -1)
(1.13147 -0.498135 1)
(1.1263 -0.490393 -1)
(1.1263 -0.490393 1)
(1.12039 -0.483195 -1)
(1.12039 -0.483195 1)
(1.11381 -0.47661 -1)
(1.11381 -0.47661 1)
(1.10661 -0.470701 -1)
(1.10661 -0.470701 1)
(1.09887 -0.465525 -1)
(1.09887 -0.465525 1)
(1.09065 -0.461132 -1)
(1.09065 -0.461132 1)
(1.08205 -0.457564 -1)
(1.08205 -0.457564 1)
(1.07314 -0.454856 -1)
(1.07314 -0.454856 1)
(1.06401 -0.453032 -1)
(1.06401 -0.453032 1)
(1.05474 -0.452111 -1)
(1.05474 -0.452111 1)
(1.15485 -0.542567 -1)
(1.05288 -0.442586 -1)
(1.05364 -0.442304 -1)
(1.15441 -0.54412 -1)
(1.15401 -0.544824 -1)
(1.05443 -0.442149 -1)
(1.15222 -0.546428 -1)
(1.15148 -0.546747 -1)
(1.15069 -0.546942 -1)
(1.14988 -0.547007 -1)
(1.14904 -0.546936 -1)
(1.1529 -0.545993 -1)
(1.14746 -0.546379 -1)
(1.14614 -0.545327 -1)
(1.14564 -0.544651 -1)
(1.145 -0.543094 -1)
(1.05006 -0.446311 -1)
(1.05025 -0.445525 -1)
(1.05057 -0.444781 -1)
(1.05101 -0.444098 -1)
(1.05155 -0.443495 -1)
(1.05218 -0.442986 -1)
(1.04999 -0.447117 -1)
(1.05391 -0.451998 -1)
(1.0531 -0.451746 -1)
(1.05235 -0.451362 -1)
(1.05167 -0.450857 -1)
(1.05109 -0.450245 -1)
(1.05028 -0.448775 -1)
(1.05443 -0.442149 1)
(1.05364 -0.442304 1)
(1.15441 -0.54412 1)
(1.14988 -0.547007 1)
(1.15069 -0.546942 1)
(1.15485 -0.542567 1)
(1.14904 -0.546936 1)
(1.05288 -0.442586 1)
(1.05218 -0.442986 1)
(1.05155 -0.443495 1)
(1.05101 -0.444098 1)
(1.05057 -0.444781 1)
(1.05025 -0.445525 1)
(1.05006 -0.446311 1)
(1.04999 -0.447117 1)
(1.05391 -0.451998 1)
(1.145 -0.543094 1)
(1.15148 -0.546747 1)
(1.15222 -0.546428 1)
(1.1529 -0.545993 1)
(1.05028 -0.448775 1)
(1.14746 -0.546379 1)
(1.15401 -0.544824 1)
(1.14564 -0.544651 1)
(1.14614 -0.545327 1)
(1.0531 -0.451746 1)
(1.05109 -0.450245 1)
(1.05167 -0.450857 1)
(1.05235 -0.451362 1)
)


// edges:

145
(
(14 15)
(16 17)
(15 18)
(19 16)
(18 20)
(21 19)
(20 22)
(23 21)
(22 24)
(25 23)
(24 26)
(27 25)
(26 28)
(29 27)
(28 30)
(31 29)
(30 32)
(33 31)
(32 34)
(35 33)
(34 36)
(37 35)
(36 38)
(39 37)
(38 40)
(41 39)
(40 42)
(43 41)
(42 44)
(45 43)
(44 46)
(47 45)
(48 49)
(50 51)
(52 48)
(51 53)
(54 52)
(53 55)
(56 54)
(55 57)
(58 56)
(57 59)
(60 58)
(59 61)
(62 60)
(61 63)
(64 62)
(63 65)
(66 64)
(65 67)
(68 66)
(67 69)
(70 68)
(69 71)
(72 70)
(71 73)
(74 72)
(73 75)
(76 74)
(75 77)
(78 76)
(77 79)
(47 80)
(81 82)
(80 0)
(0 83)
(83 84)
(82 85)
(85 17)
(86 87)
(87 88)
(88 89)
(89 90)
(84 1)
(1 91)
(91 86)
(92 2)
(2 93)
(93 94)
(94 3)
(90 4)
(4 92)
(95 49)
(3 95)
(96 97)
(97 98)
(98 99)
(99 100)
(100 101)
(101 81)
(102 96)
(78 103)
(103 104)
(104 105)
(105 106)
(106 107)
(107 5)
(5 108)
(108 6)
(6 102)
(109 110)
(14 109)
(111 7)
(112 113)
(7 114)
(114 46)
(115 112)
(110 116)
(116 117)
(117 118)
(118 119)
(119 120)
(120 121)
(121 122)
(122 123)
(124 79)
(125 8)
(113 126)
(126 127)
(127 128)
(129 9)
(50 125)
(130 10)
(10 115)
(128 11)
(11 131)
(131 111)
(8 132)
(132 133)
(12 130)
(133 12)
(134 124)
(123 13)
(13 129)
(9 135)
(135 136)
(137 134)
(136 137)
(7 0)
(11 1)
(10 4)
(12 2)
(8 3)
(9 5)
(13 6)
)

// * * * * * * * * * * * * * * * * * * * * * * * * * * * * * * * * * * * * * //


// ************************************************************************* //
