/*--------------------------------*- C++ -*----------------------------------*\
| =========                 |                                                 |
| \\      /  F ield         | OpenFOAM: The Open Source CFD Toolbox           |
|  \\    /   O peration     | Version:  v1912                                 |
|   \\  /    A nd           | Website:  www.openfoam.com                      |
|    \\/     M anipulation  |                                                 |
\*---------------------------------------------------------------------------*/
FoamFile
{
    version     2.0;
    format      ascii;
    class       featureEdgeMesh;
    location    "constant/triSurface";
    object      vane8.eMesh;
}
// * * * * * * * * * * * * * * * * * * * * * * * * * * * * * * * * * * * * * //


// points:

138
(
(1.5247 -0.175361 -1)
(1.52351 -0.177454 -1)
(1.51675 -0.177908 -1)
(1.51525 -0.175899 -1)
(1.51822 -0.178725 -1)
(1.42062 -0.081545 -1)
(1.42006 -0.0799584 -1)
(1.5247 -0.175361 1)
(1.51525 -0.175899 1)
(1.42062 -0.081545 1)
(1.51822 -0.178725 1)
(1.52351 -0.177454 1)
(1.51675 -0.177908 1)
(1.42006 -0.0799584 1)
(1.42524 -0.0741238 1)
(1.43485 -0.0750485 1)
(1.43485 -0.0750485 -1)
(1.42524 -0.0741238 -1)
(1.44433 -0.0768511 1)
(1.44433 -0.0768511 -1)
(1.4536 -0.0795162 1)
(1.4536 -0.0795162 -1)
(1.46259 -0.0830214 1)
(1.46259 -0.0830214 -1)
(1.47122 -0.0873371 1)
(1.47122 -0.0873371 -1)
(1.47942 -0.092427 1)
(1.47942 -0.092427 -1)
(1.48712 -0.0982478 1)
(1.48712 -0.0982478 -1)
(1.49425 -0.104751 1)
(1.49425 -0.104751 -1)
(1.50075 -0.11188 1)
(1.50075 -0.11188 -1)
(1.50657 -0.119577 1)
(1.50657 -0.119577 -1)
(1.51166 -0.127776 1)
(1.51166 -0.127776 -1)
(1.51598 -0.136407 1)
(1.51598 -0.136407 -1)
(1.51948 -0.145398 1)
(1.51948 -0.145398 -1)
(1.52215 -0.154672 1)
(1.52215 -0.154672 -1)
(1.52395 -0.164152 1)
(1.52395 -0.164152 -1)
(1.52488 -0.173758 1)
(1.52488 -0.173758 -1)
(1.51397 -0.16499 -1)
(1.51489 -0.174258 -1)
(1.51489 -0.174258 1)
(1.51397 -0.16499 1)
(1.51214 -0.155858 -1)
(1.51214 -0.155858 1)
(1.50944 -0.146948 -1)
(1.50944 -0.146948 1)
(1.50587 -0.138346 -1)
(1.50587 -0.138346 1)
(1.50147 -0.130135 -1)
(1.50147 -0.130135 1)
(1.4963 -0.122393 -1)
(1.4963 -0.122393 1)
(1.49039 -0.115195 -1)
(1.49039 -0.115195 1)
(1.48381 -0.10861 -1)
(1.48381 -0.10861 1)
(1.47661 -0.102701 -1)
(1.47661 -0.102701 1)
(1.46887 -0.0975255 -1)
(1.46887 -0.0975255 1)
(1.46065 -0.0931324 -1)
(1.46065 -0.0931324 1)
(1.45205 -0.0895644 -1)
(1.45205 -0.0895644 1)
(1.44314 -0.0868556 -1)
(1.44314 -0.0868556 1)
(1.43401 -0.085032 -1)
(1.43401 -0.085032 1)
(1.42474 -0.0841113 -1)
(1.42474 -0.0841113 1)
(1.52485 -0.174567 -1)
(1.42288 -0.0745857 -1)
(1.42364 -0.0743042 -1)
(1.52441 -0.17612 -1)
(1.52401 -0.176824 -1)
(1.42443 -0.0741489 -1)
(1.52222 -0.178428 -1)
(1.52148 -0.178747 -1)
(1.52069 -0.178942 -1)
(1.51988 -0.179007 -1)
(1.51904 -0.178936 -1)
(1.5229 -0.177993 -1)
(1.51746 -0.178379 -1)
(1.51614 -0.177327 -1)
(1.51564 -0.176651 -1)
(1.515 -0.175094 -1)
(1.42006 -0.0783107 -1)
(1.42025 -0.0775249 -1)
(1.42057 -0.076781 -1)
(1.42101 -0.0760982 -1)
(1.42155 -0.0754947 -1)
(1.42218 -0.0749861 -1)
(1.41999 -0.0791175 -1)
(1.42391 -0.0839981 -1)
(1.4231 -0.0837459 -1)
(1.42235 -0.0833619 -1)
(1.42167 -0.0828569 -1)
(1.42109 -0.0822455 -1)
(1.42028 -0.0807753 -1)
(1.42443 -0.0741489 1)
(1.42364 -0.0743042 1)
(1.52441 -0.17612 1)
(1.51988 -0.179007 1)
(1.52069 -0.178942 1)
(1.52485 -0.174567 1)
(1.51904 -0.178936 1)
(1.42288 -0.0745857 1)
(1.42218 -0.0749861 1)
(1.42155 -0.0754947 1)
(1.42101 -0.0760982 1)
(1.42057 -0.076781 1)
(1.42025 -0.0775249 1)
(1.42006 -0.0783107 1)
(1.41999 -0.0791175 1)
(1.42391 -0.0839981 1)
(1.515 -0.175094 1)
(1.52148 -0.178747 1)
(1.52222 -0.178428 1)
(1.5229 -0.177993 1)
(1.42028 -0.0807753 1)
(1.51746 -0.178379 1)
(1.52401 -0.176824 1)
(1.51564 -0.176651 1)
(1.51614 -0.177327 1)
(1.4231 -0.0837459 1)
(1.42109 -0.0822455 1)
(1.42167 -0.0828569 1)
(1.42235 -0.0833619 1)
)


// edges:

145
(
(14 15)
(16 17)
(15 18)
(19 16)
(18 20)
(21 19)
(20 22)
(23 21)
(22 24)
(25 23)
(24 26)
(27 25)
(26 28)
(29 27)
(28 30)
(31 29)
(30 32)
(33 31)
(32 34)
(35 33)
(34 36)
(37 35)
(36 38)
(39 37)
(38 40)
(41 39)
(40 42)
(43 41)
(42 44)
(45 43)
(44 46)
(47 45)
(48 49)
(50 51)
(52 48)
(51 53)
(54 52)
(53 55)
(56 54)
(55 57)
(58 56)
(57 59)
(60 58)
(59 61)
(62 60)
(61 63)
(64 62)
(63 65)
(66 64)
(65 67)
(68 66)
(67 69)
(70 68)
(69 71)
(72 70)
(71 73)
(74 72)
(73 75)
(76 74)
(75 77)
(78 76)
(77 79)
(47 80)
(81 82)
(80 0)
(0 83)
(83 84)
(82 85)
(85 17)
(86 87)
(87 88)
(88 89)
(89 90)
(84 1)
(1 91)
(91 86)
(92 2)
(2 93)
(93 94)
(94 3)
(90 4)
(4 92)
(95 49)
(3 95)
(96 97)
(97 98)
(98 99)
(99 100)
(100 101)
(101 81)
(102 96)
(78 103)
(103 104)
(104 105)
(105 106)
(106 107)
(107 5)
(5 108)
(108 6)
(6 102)
(109 110)
(14 109)
(111 7)
(112 113)
(7 114)
(114 46)
(115 112)
(110 116)
(116 117)
(117 118)
(118 119)
(119 120)
(120 121)
(121 122)
(122 123)
(124 79)
(125 8)
(113 126)
(126 127)
(127 128)
(129 9)
(50 125)
(130 10)
(10 115)
(128 11)
(11 131)
(131 111)
(8 132)
(132 133)
(12 130)
(133 12)
(134 124)
(123 13)
(13 129)
(9 135)
(135 136)
(137 134)
(136 137)
(7 0)
(11 1)
(10 4)
(12 2)
(8 3)
(9 5)
(13 6)
)

// * * * * * * * * * * * * * * * * * * * * * * * * * * * * * * * * * * * * * //


// ************************************************************************* //
