/*--------------------------------*- C++ -*----------------------------------*\
| =========                 |                                                 |
| \\      /  F ield         | OpenFOAM: The Open Source CFD Toolbox           |
|  \\    /   O peration     | Version:  v1912                                 |
|   \\  /    A nd           | Website:  www.openfoam.com                      |
|    \\/     M anipulation  |                                                 |
\*---------------------------------------------------------------------------*/
FoamFile
{
    version     2.0;
    format      ascii;
    class       featureEdgeMesh;
    location    "constant/triSurface";
    object      vane3.eMesh;
}
// * * * * * * * * * * * * * * * * * * * * * * * * * * * * * * * * * * * * * //


// points:

138
(
(1.2647 -0.438361 -1)
(1.26351 -0.440454 -1)
(1.25675 -0.440908 -1)
(1.25525 -0.438899 -1)
(1.25822 -0.441725 -1)
(1.16062 -0.344545 -1)
(1.16006 -0.342958 -1)
(1.2647 -0.438361 1)
(1.25525 -0.438899 1)
(1.16062 -0.344545 1)
(1.25822 -0.441725 1)
(1.26351 -0.440454 1)
(1.25675 -0.440908 1)
(1.16006 -0.342958 1)
(1.16524 -0.337124 1)
(1.17485 -0.338048 1)
(1.17485 -0.338048 -1)
(1.16524 -0.337124 -1)
(1.18433 -0.339851 1)
(1.18433 -0.339851 -1)
(1.1936 -0.342516 1)
(1.1936 -0.342516 -1)
(1.20259 -0.346021 1)
(1.20259 -0.346021 -1)
(1.21122 -0.350337 1)
(1.21122 -0.350337 -1)
(1.21942 -0.355427 1)
(1.21942 -0.355427 -1)
(1.22712 -0.361248 1)
(1.22712 -0.361248 -1)
(1.23425 -0.367751 1)
(1.23425 -0.367751 -1)
(1.24075 -0.37488 1)
(1.24075 -0.37488 -1)
(1.24657 -0.382577 1)
(1.24657 -0.382577 -1)
(1.25166 -0.390776 1)
(1.25166 -0.390776 -1)
(1.25598 -0.399407 1)
(1.25598 -0.399407 -1)
(1.25948 -0.408398 1)
(1.25948 -0.408398 -1)
(1.26215 -0.417672 1)
(1.26215 -0.417672 -1)
(1.26395 -0.427152 1)
(1.26395 -0.427152 -1)
(1.26488 -0.436758 1)
(1.26488 -0.436758 -1)
(1.25397 -0.42799 -1)
(1.25489 -0.437258 -1)
(1.25489 -0.437258 1)
(1.25397 -0.42799 1)
(1.25214 -0.418858 -1)
(1.25214 -0.418858 1)
(1.24944 -0.409948 -1)
(1.24944 -0.409948 1)
(1.24587 -0.401346 -1)
(1.24587 -0.401346 1)
(1.24147 -0.393135 -1)
(1.24147 -0.393135 1)
(1.2363 -0.385393 -1)
(1.2363 -0.385393 1)
(1.23039 -0.378195 -1)
(1.23039 -0.378195 1)
(1.22381 -0.37161 -1)
(1.22381 -0.37161 1)
(1.21661 -0.365701 -1)
(1.21661 -0.365701 1)
(1.20887 -0.360525 -1)
(1.20887 -0.360525 1)
(1.20065 -0.356132 -1)
(1.20065 -0.356132 1)
(1.19205 -0.352564 -1)
(1.19205 -0.352564 1)
(1.18314 -0.349856 -1)
(1.18314 -0.349856 1)
(1.17401 -0.348032 -1)
(1.17401 -0.348032 1)
(1.16474 -0.347111 -1)
(1.16474 -0.347111 1)
(1.26485 -0.437567 -1)
(1.16288 -0.337586 -1)
(1.16364 -0.337304 -1)
(1.26441 -0.43912 -1)
(1.26401 -0.439824 -1)
(1.16443 -0.337149 -1)
(1.26222 -0.441428 -1)
(1.26148 -0.441747 -1)
(1.26069 -0.441942 -1)
(1.25988 -0.442007 -1)
(1.25904 -0.441936 -1)
(1.2629 -0.440993 -1)
(1.25746 -0.441379 -1)
(1.25614 -0.440327 -1)
(1.25564 -0.439651 -1)
(1.255 -0.438094 -1)
(1.16006 -0.341311 -1)
(1.16025 -0.340525 -1)
(1.16057 -0.339781 -1)
(1.16101 -0.339098 -1)
(1.16155 -0.338495 -1)
(1.16218 -0.337986 -1)
(1.15999 -0.342117 -1)
(1.16391 -0.346998 -1)
(1.1631 -0.346746 -1)
(1.16235 -0.346362 -1)
(1.16167 -0.345857 -1)
(1.16109 -0.345245 -1)
(1.16028 -0.343775 -1)
(1.16443 -0.337149 1)
(1.16364 -0.337304 1)
(1.26441 -0.43912 1)
(1.25988 -0.442007 1)
(1.26069 -0.441942 1)
(1.26485 -0.437567 1)
(1.25904 -0.441936 1)
(1.16288 -0.337586 1)
(1.16218 -0.337986 1)
(1.16155 -0.338495 1)
(1.16101 -0.339098 1)
(1.16057 -0.339781 1)
(1.16025 -0.340525 1)
(1.16006 -0.341311 1)
(1.15999 -0.342117 1)
(1.16391 -0.346998 1)
(1.255 -0.438094 1)
(1.26148 -0.441747 1)
(1.26222 -0.441428 1)
(1.2629 -0.440993 1)
(1.16028 -0.343775 1)
(1.25746 -0.441379 1)
(1.26401 -0.439824 1)
(1.25564 -0.439651 1)
(1.25614 -0.440327 1)
(1.1631 -0.346746 1)
(1.16109 -0.345245 1)
(1.16167 -0.345857 1)
(1.16235 -0.346362 1)
)


// edges:

145
(
(14 15)
(16 17)
(15 18)
(19 16)
(18 20)
(21 19)
(20 22)
(23 21)
(22 24)
(25 23)
(24 26)
(27 25)
(26 28)
(29 27)
(28 30)
(31 29)
(30 32)
(33 31)
(32 34)
(35 33)
(34 36)
(37 35)
(36 38)
(39 37)
(38 40)
(41 39)
(40 42)
(43 41)
(42 44)
(45 43)
(44 46)
(47 45)
(48 49)
(50 51)
(52 48)
(51 53)
(54 52)
(53 55)
(56 54)
(55 57)
(58 56)
(57 59)
(60 58)
(59 61)
(62 60)
(61 63)
(64 62)
(63 65)
(66 64)
(65 67)
(68 66)
(67 69)
(70 68)
(69 71)
(72 70)
(71 73)
(74 72)
(73 75)
(76 74)
(75 77)
(78 76)
(77 79)
(47 80)
(81 82)
(80 0)
(0 83)
(83 84)
(82 85)
(85 17)
(86 87)
(87 88)
(88 89)
(89 90)
(84 1)
(1 91)
(91 86)
(92 2)
(2 93)
(93 94)
(94 3)
(90 4)
(4 92)
(95 49)
(3 95)
(96 97)
(97 98)
(98 99)
(99 100)
(100 101)
(101 81)
(102 96)
(78 103)
(103 104)
(104 105)
(105 106)
(106 107)
(107 5)
(5 108)
(108 6)
(6 102)
(109 110)
(14 109)
(111 7)
(112 113)
(7 114)
(114 46)
(115 112)
(110 116)
(116 117)
(117 118)
(118 119)
(119 120)
(120 121)
(121 122)
(122 123)
(124 79)
(125 8)
(113 126)
(126 127)
(127 128)
(129 9)
(50 125)
(130 10)
(10 115)
(128 11)
(11 131)
(131 111)
(8 132)
(132 133)
(12 130)
(133 12)
(134 124)
(123 13)
(13 129)
(9 135)
(135 136)
(137 134)
(136 137)
(7 0)
(11 1)
(10 4)
(12 2)
(8 3)
(9 5)
(13 6)
)

// * * * * * * * * * * * * * * * * * * * * * * * * * * * * * * * * * * * * * //


// ************************************************************************* //
