/*--------------------------------*- C++ -*----------------------------------*\
| =========                 |                                                 |
| \\      /  F ield         | OpenFOAM: The Open Source CFD Toolbox           |
|  \\    /   O peration     | Version:  v1912                                 |
|   \\  /    A nd           | Website:  www.openfoam.com                      |
|    \\/     M anipulation  |                                                 |
\*---------------------------------------------------------------------------*/
FoamFile
{
    version     2.0;
    format      ascii;
    class       featureEdgeMesh;
    location    "constant/triSurface";
    object      vane8.eMesh;
}
// * * * * * * * * * * * * * * * * * * * * * * * * * * * * * * * * * * * * * //


// points:

138
(
(2.08 0.196812 -1)
(2.08 0.196812 1)
(1.90049 0.398752 1)
(1.9197 0.396903 1)
(1.9197 0.396903 -1)
(1.90049 0.398752 -1)
(1.93866 0.393298 1)
(1.93866 0.393298 -1)
(1.95721 0.387968 1)
(1.95721 0.387968 -1)
(1.97519 0.380957 1)
(1.97519 0.380957 -1)
(1.99245 0.372326 1)
(1.99245 0.372326 -1)
(2.00885 0.362146 1)
(2.00885 0.362146 -1)
(2.02424 0.350504 1)
(2.02424 0.350504 -1)
(2.0385 0.337499 1)
(2.0385 0.337499 -1)
(2.0515 0.323239 1)
(2.0515 0.323239 -1)
(2.06315 0.307846 1)
(2.06315 0.307846 -1)
(2.07333 0.291449 1)
(2.07333 0.291449 -1)
(2.08196 0.274187 1)
(2.08196 0.274187 -1)
(2.08897 0.256205 1)
(2.08897 0.256205 -1)
(2.0943 0.237656 1)
(2.0943 0.237656 -1)
(2.0979 0.218696 1)
(2.0979 0.218696 -1)
(2.09975 0.199485 1)
(2.09975 0.199485 -1)
(2.07794 0.217019 -1)
(2.07978 0.198485 -1)
(2.07978 0.198485 1)
(2.07794 0.217019 1)
(2.07429 0.235284 -1)
(2.07429 0.235284 1)
(2.06887 0.253104 -1)
(2.06887 0.253104 1)
(2.06174 0.270307 -1)
(2.06174 0.270307 1)
(2.05295 0.28673 -1)
(2.05295 0.28673 1)
(2.0426 0.302214 -1)
(2.0426 0.302214 1)
(2.03078 0.31661 -1)
(2.03078 0.31661 1)
(2.01761 0.32978 -1)
(2.01761 0.32978 1)
(2.00321 0.341598 -1)
(2.00321 0.341598 1)
(1.98773 0.351949 -1)
(1.98773 0.351949 1)
(1.97131 0.360735 -1)
(1.97131 0.360735 1)
(1.9541 0.367871 -1)
(1.9541 0.367871 1)
(1.93628 0.373289 -1)
(1.93628 0.373289 1)
(1.91802 0.376936 -1)
(1.91802 0.376936 1)
(1.89948 0.378777 -1)
(1.89948 0.378777 1)
(2.0997 0.197867 -1)
(1.89576 0.397828 -1)
(1.89728 0.398391 -1)
(2.09939 0.196278 -1)
(2.09883 0.19476 -1)
(2.09803 0.193353 -1)
(1.89887 0.398702 -1)
(2.09444 0.190144 -1)
(2.09295 0.189506 -1)
(2.09138 0.189116 -1)
(2.08977 0.188985 -1)
(2.08808 0.189127 -1)
(2.09701 0.192093 -1)
(2.0958 0.191014 -1)
(2.08491 0.190242 -1)
(2.08351 0.191183 -1)
(2.08229 0.192347 -1)
(2.08128 0.193699 -1)
(2.08051 0.195202 -1)
(2.08645 0.189551 -1)
(1.89012 0.390379 -1)
(1.89051 0.39195 -1)
(1.89114 0.393438 -1)
(1.89201 0.394803 -1)
(1.89309 0.396011 -1)
(1.89435 0.397028 -1)
(1.88999 0.388765 -1)
(1.89781 0.379004 -1)
(1.8962 0.379508 -1)
(1.8947 0.380276 -1)
(1.89335 0.381286 -1)
(1.89218 0.382509 -1)
(1.89124 0.38391 -1)
(1.89055 0.385449 -1)
(1.89013 0.387083 -1)
(1.89887 0.398702 1)
(1.89728 0.398391 1)
(2.09883 0.19476 1)
(2.09939 0.196278 1)
(2.08977 0.188985 1)
(2.09138 0.189116 1)
(2.0997 0.197867 1)
(2.08808 0.189127 1)
(1.89576 0.397828 1)
(1.89435 0.397028 1)
(1.89309 0.396011 1)
(1.89201 0.394803 1)
(1.89114 0.393438 1)
(1.89051 0.39195 1)
(1.89012 0.390379 1)
(1.88999 0.388765 1)
(1.89781 0.379004 1)
(2.08051 0.195202 1)
(2.09295 0.189506 1)
(2.09444 0.190144 1)
(2.0958 0.191014 1)
(1.89055 0.385449 1)
(1.89124 0.38391 1)
(2.08491 0.190242 1)
(2.08645 0.189551 1)
(2.09701 0.192093 1)
(2.09803 0.193353 1)
(2.08128 0.193699 1)
(2.08229 0.192347 1)
(2.08351 0.191183 1)
(1.8962 0.379508 1)
(1.89013 0.387083 1)
(1.89218 0.382509 1)
(1.89335 0.381286 1)
(1.8947 0.380276 1)
)


// edges:

139
(
(2 3)
(4 5)
(3 6)
(7 4)
(6 8)
(9 7)
(8 10)
(11 9)
(10 12)
(13 11)
(12 14)
(15 13)
(14 16)
(17 15)
(16 18)
(19 17)
(18 20)
(21 19)
(20 22)
(23 21)
(22 24)
(25 23)
(24 26)
(27 25)
(26 28)
(29 27)
(28 30)
(31 29)
(30 32)
(33 31)
(32 34)
(35 33)
(36 37)
(38 39)
(40 36)
(39 41)
(42 40)
(41 43)
(44 42)
(43 45)
(46 44)
(45 47)
(48 46)
(47 49)
(50 48)
(49 51)
(52 50)
(51 53)
(54 52)
(53 55)
(56 54)
(55 57)
(58 56)
(57 59)
(60 58)
(59 61)
(62 60)
(61 63)
(64 62)
(63 65)
(66 64)
(65 67)
(35 68)
(69 70)
(68 71)
(71 72)
(72 73)
(70 74)
(74 5)
(75 76)
(76 77)
(77 78)
(78 79)
(73 80)
(80 81)
(81 75)
(82 83)
(83 84)
(84 85)
(85 86)
(79 87)
(87 82)
(0 37)
(86 0)
(88 89)
(89 90)
(90 91)
(91 92)
(92 93)
(93 69)
(94 88)
(66 95)
(95 96)
(96 97)
(97 98)
(98 99)
(99 100)
(100 101)
(101 102)
(102 94)
(103 104)
(2 103)
(105 106)
(107 108)
(106 109)
(109 34)
(110 107)
(104 111)
(111 112)
(112 113)
(113 114)
(114 115)
(115 116)
(116 117)
(117 118)
(119 67)
(1 120)
(108 121)
(121 122)
(122 123)
(124 125)
(38 1)
(126 127)
(127 110)
(123 128)
(128 129)
(129 105)
(120 130)
(130 131)
(132 126)
(131 132)
(133 119)
(118 134)
(134 124)
(125 135)
(135 136)
(137 133)
(136 137)
(1 0)
)

// * * * * * * * * * * * * * * * * * * * * * * * * * * * * * * * * * * * * * //


// ************************************************************************* //
