/*--------------------------------*- C++ -*----------------------------------*\
| =========                 |                                                 |
| \\      /  F ield         | OpenFOAM: The Open Source CFD Toolbox           |
|  \\    /   O peration     | Version:  v1912                                 |
|   \\  /    A nd           | Website:  www.openfoam.com                      |
|    \\/     M anipulation  |                                                 |
\*---------------------------------------------------------------------------*/
FoamFile
{
    version     2.0;
    format      ascii;
    class       featureEdgeMesh;
    location    "constant/triSurface";
    object      vane7.eMesh;
}
// * * * * * * * * * * * * * * * * * * * * * * * * * * * * * * * * * * * * * //


// points:

138
(
(1.4747 -0.228361 -1)
(1.47351 -0.230454 -1)
(1.46675 -0.230908 -1)
(1.46525 -0.228899 -1)
(1.46822 -0.231725 -1)
(1.37062 -0.134545 -1)
(1.37006 -0.132958 -1)
(1.4747 -0.228361 1)
(1.46525 -0.228899 1)
(1.37062 -0.134545 1)
(1.46822 -0.231725 1)
(1.47351 -0.230454 1)
(1.46675 -0.230908 1)
(1.37006 -0.132958 1)
(1.37524 -0.127124 1)
(1.38485 -0.128048 1)
(1.38485 -0.128048 -1)
(1.37524 -0.127124 -1)
(1.39433 -0.129851 1)
(1.39433 -0.129851 -1)
(1.4036 -0.132516 1)
(1.4036 -0.132516 -1)
(1.41259 -0.136021 1)
(1.41259 -0.136021 -1)
(1.42122 -0.140337 1)
(1.42122 -0.140337 -1)
(1.42942 -0.145427 1)
(1.42942 -0.145427 -1)
(1.43712 -0.151248 1)
(1.43712 -0.151248 -1)
(1.44425 -0.157751 1)
(1.44425 -0.157751 -1)
(1.45075 -0.16488 1)
(1.45075 -0.16488 -1)
(1.45657 -0.172577 1)
(1.45657 -0.172577 -1)
(1.46166 -0.180776 1)
(1.46166 -0.180776 -1)
(1.46598 -0.189407 1)
(1.46598 -0.189407 -1)
(1.46948 -0.198398 1)
(1.46948 -0.198398 -1)
(1.47215 -0.207672 1)
(1.47215 -0.207672 -1)
(1.47395 -0.217152 1)
(1.47395 -0.217152 -1)
(1.47488 -0.226758 1)
(1.47488 -0.226758 -1)
(1.46397 -0.21799 -1)
(1.46489 -0.227258 -1)
(1.46489 -0.227258 1)
(1.46397 -0.21799 1)
(1.46214 -0.208858 -1)
(1.46214 -0.208858 1)
(1.45944 -0.199948 -1)
(1.45944 -0.199948 1)
(1.45587 -0.191346 -1)
(1.45587 -0.191346 1)
(1.45147 -0.183135 -1)
(1.45147 -0.183135 1)
(1.4463 -0.175393 -1)
(1.4463 -0.175393 1)
(1.44039 -0.168195 -1)
(1.44039 -0.168195 1)
(1.43381 -0.16161 -1)
(1.43381 -0.16161 1)
(1.42661 -0.155701 -1)
(1.42661 -0.155701 1)
(1.41887 -0.150525 -1)
(1.41887 -0.150525 1)
(1.41065 -0.146132 -1)
(1.41065 -0.146132 1)
(1.40205 -0.142564 -1)
(1.40205 -0.142564 1)
(1.39314 -0.139856 -1)
(1.39314 -0.139856 1)
(1.38401 -0.138032 -1)
(1.38401 -0.138032 1)
(1.37474 -0.137111 -1)
(1.37474 -0.137111 1)
(1.47485 -0.227567 -1)
(1.37288 -0.127586 -1)
(1.37364 -0.127304 -1)
(1.47441 -0.22912 -1)
(1.47401 -0.229824 -1)
(1.37443 -0.127149 -1)
(1.47222 -0.231428 -1)
(1.47148 -0.231747 -1)
(1.47069 -0.231942 -1)
(1.46988 -0.232007 -1)
(1.46904 -0.231936 -1)
(1.4729 -0.230993 -1)
(1.46746 -0.231379 -1)
(1.46614 -0.230327 -1)
(1.46564 -0.229651 -1)
(1.465 -0.228094 -1)
(1.37006 -0.131311 -1)
(1.37025 -0.130525 -1)
(1.37057 -0.129781 -1)
(1.37101 -0.129098 -1)
(1.37155 -0.128495 -1)
(1.37218 -0.127986 -1)
(1.36999 -0.132117 -1)
(1.37391 -0.136998 -1)
(1.3731 -0.136746 -1)
(1.37235 -0.136362 -1)
(1.37167 -0.135857 -1)
(1.37109 -0.135245 -1)
(1.37028 -0.133775 -1)
(1.37443 -0.127149 1)
(1.37364 -0.127304 1)
(1.47441 -0.22912 1)
(1.46988 -0.232007 1)
(1.47069 -0.231942 1)
(1.47485 -0.227567 1)
(1.46904 -0.231936 1)
(1.37288 -0.127586 1)
(1.37218 -0.127986 1)
(1.37155 -0.128495 1)
(1.37101 -0.129098 1)
(1.37057 -0.129781 1)
(1.37025 -0.130525 1)
(1.37006 -0.131311 1)
(1.36999 -0.132117 1)
(1.37391 -0.136998 1)
(1.465 -0.228094 1)
(1.47148 -0.231747 1)
(1.47222 -0.231428 1)
(1.4729 -0.230993 1)
(1.37028 -0.133775 1)
(1.46746 -0.231379 1)
(1.47401 -0.229824 1)
(1.46564 -0.229651 1)
(1.46614 -0.230327 1)
(1.3731 -0.136746 1)
(1.37109 -0.135245 1)
(1.37167 -0.135857 1)
(1.37235 -0.136362 1)
)


// edges:

145
(
(14 15)
(16 17)
(15 18)
(19 16)
(18 20)
(21 19)
(20 22)
(23 21)
(22 24)
(25 23)
(24 26)
(27 25)
(26 28)
(29 27)
(28 30)
(31 29)
(30 32)
(33 31)
(32 34)
(35 33)
(34 36)
(37 35)
(36 38)
(39 37)
(38 40)
(41 39)
(40 42)
(43 41)
(42 44)
(45 43)
(44 46)
(47 45)
(48 49)
(50 51)
(52 48)
(51 53)
(54 52)
(53 55)
(56 54)
(55 57)
(58 56)
(57 59)
(60 58)
(59 61)
(62 60)
(61 63)
(64 62)
(63 65)
(66 64)
(65 67)
(68 66)
(67 69)
(70 68)
(69 71)
(72 70)
(71 73)
(74 72)
(73 75)
(76 74)
(75 77)
(78 76)
(77 79)
(47 80)
(81 82)
(80 0)
(0 83)
(83 84)
(82 85)
(85 17)
(86 87)
(87 88)
(88 89)
(89 90)
(84 1)
(1 91)
(91 86)
(92 2)
(2 93)
(93 94)
(94 3)
(90 4)
(4 92)
(95 49)
(3 95)
(96 97)
(97 98)
(98 99)
(99 100)
(100 101)
(101 81)
(102 96)
(78 103)
(103 104)
(104 105)
(105 106)
(106 107)
(107 5)
(5 108)
(108 6)
(6 102)
(109 110)
(14 109)
(111 7)
(112 113)
(7 114)
(114 46)
(115 112)
(110 116)
(116 117)
(117 118)
(118 119)
(119 120)
(120 121)
(121 122)
(122 123)
(124 79)
(125 8)
(113 126)
(126 127)
(127 128)
(129 9)
(50 125)
(130 10)
(10 115)
(128 11)
(11 131)
(131 111)
(8 132)
(132 133)
(12 130)
(133 12)
(134 124)
(123 13)
(13 129)
(9 135)
(135 136)
(137 134)
(136 137)
(7 0)
(11 1)
(10 4)
(12 2)
(8 3)
(9 5)
(13 6)
)

// * * * * * * * * * * * * * * * * * * * * * * * * * * * * * * * * * * * * * //


// ************************************************************************* //
