/*--------------------------------*- C++ -*----------------------------------*\
| =========                 |                                                 |
| \\      /  F ield         | OpenFOAM: The Open Source CFD Toolbox           |
|  \\    /   O peration     | Version:  v1912                                 |
|   \\  /    A nd           | Website:  www.openfoam.com                      |
|    \\/     M anipulation  |                                                 |
\*---------------------------------------------------------------------------*/
FoamFile
{
    version     2.0;
    format      ascii;
    class       featureEdgeMesh;
    location    "constant/triSurface";
    object      vane5.eMesh;
}
// * * * * * * * * * * * * * * * * * * * * * * * * * * * * * * * * * * * * * //


// points:

138
(
(1.3647 -0.333361 -1)
(1.36351 -0.335454 -1)
(1.35675 -0.335908 -1)
(1.35525 -0.333899 -1)
(1.35822 -0.336725 -1)
(1.26062 -0.239545 -1)
(1.26006 -0.237958 -1)
(1.3647 -0.333361 1)
(1.35525 -0.333899 1)
(1.26062 -0.239545 1)
(1.35822 -0.336725 1)
(1.36351 -0.335454 1)
(1.35675 -0.335908 1)
(1.26006 -0.237958 1)
(1.26524 -0.232124 1)
(1.27485 -0.233048 1)
(1.27485 -0.233048 -1)
(1.26524 -0.232124 -1)
(1.28433 -0.234851 1)
(1.28433 -0.234851 -1)
(1.2936 -0.237516 1)
(1.2936 -0.237516 -1)
(1.30259 -0.241021 1)
(1.30259 -0.241021 -1)
(1.31122 -0.245337 1)
(1.31122 -0.245337 -1)
(1.31942 -0.250427 1)
(1.31942 -0.250427 -1)
(1.32712 -0.256248 1)
(1.32712 -0.256248 -1)
(1.33425 -0.262751 1)
(1.33425 -0.262751 -1)
(1.34075 -0.26988 1)
(1.34075 -0.26988 -1)
(1.34657 -0.277577 1)
(1.34657 -0.277577 -1)
(1.35166 -0.285776 1)
(1.35166 -0.285776 -1)
(1.35598 -0.294407 1)
(1.35598 -0.294407 -1)
(1.35948 -0.303398 1)
(1.35948 -0.303398 -1)
(1.36215 -0.312672 1)
(1.36215 -0.312672 -1)
(1.36395 -0.322152 1)
(1.36395 -0.322152 -1)
(1.36488 -0.331758 1)
(1.36488 -0.331758 -1)
(1.35397 -0.32299 -1)
(1.35489 -0.332258 -1)
(1.35489 -0.332258 1)
(1.35397 -0.32299 1)
(1.35214 -0.313858 -1)
(1.35214 -0.313858 1)
(1.34944 -0.304948 -1)
(1.34944 -0.304948 1)
(1.34587 -0.296346 -1)
(1.34587 -0.296346 1)
(1.34147 -0.288135 -1)
(1.34147 -0.288135 1)
(1.3363 -0.280393 -1)
(1.3363 -0.280393 1)
(1.33039 -0.273195 -1)
(1.33039 -0.273195 1)
(1.32381 -0.26661 -1)
(1.32381 -0.26661 1)
(1.31661 -0.260701 -1)
(1.31661 -0.260701 1)
(1.30887 -0.255525 -1)
(1.30887 -0.255525 1)
(1.30065 -0.251132 -1)
(1.30065 -0.251132 1)
(1.29205 -0.247564 -1)
(1.29205 -0.247564 1)
(1.28314 -0.244856 -1)
(1.28314 -0.244856 1)
(1.27401 -0.243032 -1)
(1.27401 -0.243032 1)
(1.26474 -0.242111 -1)
(1.26474 -0.242111 1)
(1.36485 -0.332567 -1)
(1.26288 -0.232586 -1)
(1.26364 -0.232304 -1)
(1.36441 -0.33412 -1)
(1.36401 -0.334824 -1)
(1.26443 -0.232149 -1)
(1.36222 -0.336428 -1)
(1.36148 -0.336747 -1)
(1.36069 -0.336942 -1)
(1.35988 -0.337007 -1)
(1.35904 -0.336936 -1)
(1.3629 -0.335993 -1)
(1.35746 -0.336379 -1)
(1.35614 -0.335327 -1)
(1.35564 -0.334651 -1)
(1.355 -0.333094 -1)
(1.26006 -0.236311 -1)
(1.26025 -0.235525 -1)
(1.26057 -0.234781 -1)
(1.26101 -0.234098 -1)
(1.26155 -0.233495 -1)
(1.26218 -0.232986 -1)
(1.25999 -0.237117 -1)
(1.26391 -0.241998 -1)
(1.2631 -0.241746 -1)
(1.26235 -0.241362 -1)
(1.26167 -0.240857 -1)
(1.26109 -0.240245 -1)
(1.26028 -0.238775 -1)
(1.26443 -0.232149 1)
(1.26364 -0.232304 1)
(1.36441 -0.33412 1)
(1.35988 -0.337007 1)
(1.36069 -0.336942 1)
(1.36485 -0.332567 1)
(1.35904 -0.336936 1)
(1.26288 -0.232586 1)
(1.26218 -0.232986 1)
(1.26155 -0.233495 1)
(1.26101 -0.234098 1)
(1.26057 -0.234781 1)
(1.26025 -0.235525 1)
(1.26006 -0.236311 1)
(1.25999 -0.237117 1)
(1.26391 -0.241998 1)
(1.355 -0.333094 1)
(1.36148 -0.336747 1)
(1.36222 -0.336428 1)
(1.3629 -0.335993 1)
(1.26028 -0.238775 1)
(1.35746 -0.336379 1)
(1.36401 -0.334824 1)
(1.35564 -0.334651 1)
(1.35614 -0.335327 1)
(1.2631 -0.241746 1)
(1.26109 -0.240245 1)
(1.26167 -0.240857 1)
(1.26235 -0.241362 1)
)


// edges:

145
(
(14 15)
(16 17)
(15 18)
(19 16)
(18 20)
(21 19)
(20 22)
(23 21)
(22 24)
(25 23)
(24 26)
(27 25)
(26 28)
(29 27)
(28 30)
(31 29)
(30 32)
(33 31)
(32 34)
(35 33)
(34 36)
(37 35)
(36 38)
(39 37)
(38 40)
(41 39)
(40 42)
(43 41)
(42 44)
(45 43)
(44 46)
(47 45)
(48 49)
(50 51)
(52 48)
(51 53)
(54 52)
(53 55)
(56 54)
(55 57)
(58 56)
(57 59)
(60 58)
(59 61)
(62 60)
(61 63)
(64 62)
(63 65)
(66 64)
(65 67)
(68 66)
(67 69)
(70 68)
(69 71)
(72 70)
(71 73)
(74 72)
(73 75)
(76 74)
(75 77)
(78 76)
(77 79)
(47 80)
(81 82)
(80 0)
(0 83)
(83 84)
(82 85)
(85 17)
(86 87)
(87 88)
(88 89)
(89 90)
(84 1)
(1 91)
(91 86)
(92 2)
(2 93)
(93 94)
(94 3)
(90 4)
(4 92)
(95 49)
(3 95)
(96 97)
(97 98)
(98 99)
(99 100)
(100 101)
(101 81)
(102 96)
(78 103)
(103 104)
(104 105)
(105 106)
(106 107)
(107 5)
(5 108)
(108 6)
(6 102)
(109 110)
(14 109)
(111 7)
(112 113)
(7 114)
(114 46)
(115 112)
(110 116)
(116 117)
(117 118)
(118 119)
(119 120)
(120 121)
(121 122)
(122 123)
(124 79)
(125 8)
(113 126)
(126 127)
(127 128)
(129 9)
(50 125)
(130 10)
(10 115)
(128 11)
(11 131)
(131 111)
(8 132)
(132 133)
(12 130)
(133 12)
(134 124)
(123 13)
(13 129)
(9 135)
(135 136)
(137 134)
(136 137)
(7 0)
(11 1)
(10 4)
(12 2)
(8 3)
(9 5)
(13 6)
)

// * * * * * * * * * * * * * * * * * * * * * * * * * * * * * * * * * * * * * //


// ************************************************************************* //
