/*--------------------------------*- C++ -*----------------------------------*\
| =========                 |                                                 |
| \\      /  F ield         | OpenFOAM: The Open Source CFD Toolbox           |
|  \\    /   O peration     | Version:  v1912                                 |
|   \\  /    A nd           | Website:  www.openfoam.com                      |
|    \\/     M anipulation  |                                                 |
\*---------------------------------------------------------------------------*/
FoamFile
{
    version     2.0;
    format      ascii;
    class       featureEdgeMesh;
    location    "constant/triSurface";
    object      vane2.eMesh;
}
// * * * * * * * * * * * * * * * * * * * * * * * * * * * * * * * * * * * * * //


// points:

138
(
(1.2147 -0.491361 -1)
(1.21351 -0.493454 -1)
(1.20675 -0.493908 -1)
(1.20525 -0.491899 -1)
(1.20822 -0.494725 -1)
(1.11062 -0.397545 -1)
(1.11006 -0.395958 -1)
(1.2147 -0.491361 1)
(1.20525 -0.491899 1)
(1.11062 -0.397545 1)
(1.20822 -0.494725 1)
(1.21351 -0.493454 1)
(1.20675 -0.493908 1)
(1.11006 -0.395958 1)
(1.11524 -0.390124 1)
(1.12485 -0.391048 1)
(1.12485 -0.391048 -1)
(1.11524 -0.390124 -1)
(1.13433 -0.392851 1)
(1.13433 -0.392851 -1)
(1.1436 -0.395516 1)
(1.1436 -0.395516 -1)
(1.15259 -0.399021 1)
(1.15259 -0.399021 -1)
(1.16122 -0.403337 1)
(1.16122 -0.403337 -1)
(1.16942 -0.408427 1)
(1.16942 -0.408427 -1)
(1.17712 -0.414248 1)
(1.17712 -0.414248 -1)
(1.18425 -0.420751 1)
(1.18425 -0.420751 -1)
(1.19075 -0.42788 1)
(1.19075 -0.42788 -1)
(1.19657 -0.435577 1)
(1.19657 -0.435577 -1)
(1.20166 -0.443776 1)
(1.20166 -0.443776 -1)
(1.20598 -0.452407 1)
(1.20598 -0.452407 -1)
(1.20948 -0.461398 1)
(1.20948 -0.461398 -1)
(1.21215 -0.470672 1)
(1.21215 -0.470672 -1)
(1.21395 -0.480152 1)
(1.21395 -0.480152 -1)
(1.21488 -0.489758 1)
(1.21488 -0.489758 -1)
(1.20397 -0.48099 -1)
(1.20489 -0.490258 -1)
(1.20489 -0.490258 1)
(1.20397 -0.48099 1)
(1.20214 -0.471858 -1)
(1.20214 -0.471858 1)
(1.19944 -0.462948 -1)
(1.19944 -0.462948 1)
(1.19587 -0.454346 -1)
(1.19587 -0.454346 1)
(1.19147 -0.446135 -1)
(1.19147 -0.446135 1)
(1.1863 -0.438393 -1)
(1.1863 -0.438393 1)
(1.18039 -0.431195 -1)
(1.18039 -0.431195 1)
(1.17381 -0.42461 -1)
(1.17381 -0.42461 1)
(1.16661 -0.418701 -1)
(1.16661 -0.418701 1)
(1.15887 -0.413525 -1)
(1.15887 -0.413525 1)
(1.15065 -0.409132 -1)
(1.15065 -0.409132 1)
(1.14205 -0.405564 -1)
(1.14205 -0.405564 1)
(1.13314 -0.402856 -1)
(1.13314 -0.402856 1)
(1.12401 -0.401032 -1)
(1.12401 -0.401032 1)
(1.11474 -0.400111 -1)
(1.11474 -0.400111 1)
(1.21485 -0.490567 -1)
(1.11288 -0.390586 -1)
(1.11364 -0.390304 -1)
(1.21441 -0.49212 -1)
(1.21401 -0.492824 -1)
(1.11443 -0.390149 -1)
(1.21222 -0.494428 -1)
(1.21148 -0.494747 -1)
(1.21069 -0.494942 -1)
(1.20988 -0.495007 -1)
(1.20904 -0.494936 -1)
(1.2129 -0.493993 -1)
(1.20746 -0.494379 -1)
(1.20614 -0.493327 -1)
(1.20564 -0.492651 -1)
(1.205 -0.491094 -1)
(1.11006 -0.394311 -1)
(1.11025 -0.393525 -1)
(1.11057 -0.392781 -1)
(1.11101 -0.392098 -1)
(1.11155 -0.391495 -1)
(1.11218 -0.390986 -1)
(1.10999 -0.395117 -1)
(1.11391 -0.399998 -1)
(1.1131 -0.399746 -1)
(1.11235 -0.399362 -1)
(1.11167 -0.398857 -1)
(1.11109 -0.398245 -1)
(1.11028 -0.396775 -1)
(1.11443 -0.390149 1)
(1.11364 -0.390304 1)
(1.21441 -0.49212 1)
(1.20988 -0.495007 1)
(1.21069 -0.494942 1)
(1.21485 -0.490567 1)
(1.20904 -0.494936 1)
(1.11288 -0.390586 1)
(1.11218 -0.390986 1)
(1.11155 -0.391495 1)
(1.11101 -0.392098 1)
(1.11057 -0.392781 1)
(1.11025 -0.393525 1)
(1.11006 -0.394311 1)
(1.10999 -0.395117 1)
(1.11391 -0.399998 1)
(1.205 -0.491094 1)
(1.21148 -0.494747 1)
(1.21222 -0.494428 1)
(1.2129 -0.493993 1)
(1.11028 -0.396775 1)
(1.20746 -0.494379 1)
(1.21401 -0.492824 1)
(1.20564 -0.492651 1)
(1.20614 -0.493327 1)
(1.1131 -0.399746 1)
(1.11109 -0.398245 1)
(1.11167 -0.398857 1)
(1.11235 -0.399362 1)
)


// edges:

145
(
(14 15)
(16 17)
(15 18)
(19 16)
(18 20)
(21 19)
(20 22)
(23 21)
(22 24)
(25 23)
(24 26)
(27 25)
(26 28)
(29 27)
(28 30)
(31 29)
(30 32)
(33 31)
(32 34)
(35 33)
(34 36)
(37 35)
(36 38)
(39 37)
(38 40)
(41 39)
(40 42)
(43 41)
(42 44)
(45 43)
(44 46)
(47 45)
(48 49)
(50 51)
(52 48)
(51 53)
(54 52)
(53 55)
(56 54)
(55 57)
(58 56)
(57 59)
(60 58)
(59 61)
(62 60)
(61 63)
(64 62)
(63 65)
(66 64)
(65 67)
(68 66)
(67 69)
(70 68)
(69 71)
(72 70)
(71 73)
(74 72)
(73 75)
(76 74)
(75 77)
(78 76)
(77 79)
(47 80)
(81 82)
(80 0)
(0 83)
(83 84)
(82 85)
(85 17)
(86 87)
(87 88)
(88 89)
(89 90)
(84 1)
(1 91)
(91 86)
(92 2)
(2 93)
(93 94)
(94 3)
(90 4)
(4 92)
(95 49)
(3 95)
(96 97)
(97 98)
(98 99)
(99 100)
(100 101)
(101 81)
(102 96)
(78 103)
(103 104)
(104 105)
(105 106)
(106 107)
(107 5)
(5 108)
(108 6)
(6 102)
(109 110)
(14 109)
(111 7)
(112 113)
(7 114)
(114 46)
(115 112)
(110 116)
(116 117)
(117 118)
(118 119)
(119 120)
(120 121)
(121 122)
(122 123)
(124 79)
(125 8)
(113 126)
(126 127)
(127 128)
(129 9)
(50 125)
(130 10)
(10 115)
(128 11)
(11 131)
(131 111)
(8 132)
(132 133)
(12 130)
(133 12)
(134 124)
(123 13)
(13 129)
(9 135)
(135 136)
(137 134)
(136 137)
(7 0)
(11 1)
(10 4)
(12 2)
(8 3)
(9 5)
(13 6)
)

// * * * * * * * * * * * * * * * * * * * * * * * * * * * * * * * * * * * * * //


// ************************************************************************* //
