/*--------------------------------*- C++ -*----------------------------------*\
| =========                 |                                                 |
| \\      /  F ield         | OpenFOAM: The Open Source CFD Toolbox           |
|  \\    /   O peration     | Version:  v1912                                 |
|   \\  /    A nd           | Website:  www.openfoam.com                      |
|    \\/     M anipulation  |                                                 |
\*---------------------------------------------------------------------------*/
FoamFile
{
    version     2.0;
    format      ascii;
    class       featureEdgeMesh;
    location    "constant/triSurface";
    object      vane13.eMesh;
}
// * * * * * * * * * * * * * * * * * * * * * * * * * * * * * * * * * * * * * //


// points:

138
(
(1.7847 0.0876388 -1)
(1.78351 0.0855464 -1)
(1.77675 0.0850917 -1)
(1.77525 0.0871009 -1)
(1.77822 0.0842753 -1)
(1.68062 0.181455 -1)
(1.68006 0.183042 -1)
(1.7847 0.0876388 1)
(1.77525 0.0871009 1)
(1.68062 0.181455 1)
(1.77822 0.0842753 1)
(1.78351 0.0855464 1)
(1.77675 0.0850917 1)
(1.68006 0.183042 1)
(1.68524 0.188876 1)
(1.69485 0.187952 1)
(1.69485 0.187952 -1)
(1.68524 0.188876 -1)
(1.70433 0.186149 1)
(1.70433 0.186149 -1)
(1.7136 0.183484 1)
(1.7136 0.183484 -1)
(1.72259 0.179979 1)
(1.72259 0.179979 -1)
(1.73122 0.175663 1)
(1.73122 0.175663 -1)
(1.73942 0.170573 1)
(1.73942 0.170573 -1)
(1.74712 0.164752 1)
(1.74712 0.164752 -1)
(1.75425 0.158249 1)
(1.75425 0.158249 -1)
(1.76075 0.15112 1)
(1.76075 0.15112 -1)
(1.76657 0.143423 1)
(1.76657 0.143423 -1)
(1.77166 0.135224 1)
(1.77166 0.135224 -1)
(1.77598 0.126593 1)
(1.77598 0.126593 -1)
(1.77948 0.117602 1)
(1.77948 0.117602 -1)
(1.78215 0.108328 1)
(1.78215 0.108328 -1)
(1.78395 0.0988479 1)
(1.78395 0.0988479 -1)
(1.78488 0.0892425 1)
(1.78488 0.0892425 -1)
(1.77397 0.0980095 -1)
(1.77489 0.0887425 -1)
(1.77489 0.0887425 1)
(1.77397 0.0980095 1)
(1.77214 0.107142 -1)
(1.77214 0.107142 1)
(1.76944 0.116052 -1)
(1.76944 0.116052 1)
(1.76587 0.124654 -1)
(1.76587 0.124654 1)
(1.76147 0.132865 -1)
(1.76147 0.132865 1)
(1.7563 0.140607 -1)
(1.7563 0.140607 1)
(1.75039 0.147805 -1)
(1.75039 0.147805 1)
(1.74381 0.15439 -1)
(1.74381 0.15439 1)
(1.73661 0.160299 -1)
(1.73661 0.160299 1)
(1.72887 0.165475 -1)
(1.72887 0.165475 1)
(1.72065 0.169868 -1)
(1.72065 0.169868 1)
(1.71205 0.173436 -1)
(1.71205 0.173436 1)
(1.70314 0.176144 -1)
(1.70314 0.176144 1)
(1.69401 0.177968 -1)
(1.69401 0.177968 1)
(1.68474 0.178889 -1)
(1.68474 0.178889 1)
(1.78485 0.0884333 -1)
(1.68288 0.188414 -1)
(1.68364 0.188696 -1)
(1.78441 0.0868798 -1)
(1.78401 0.0861762 -1)
(1.68443 0.188851 -1)
(1.78222 0.084572 -1)
(1.78148 0.0842529 -1)
(1.78069 0.084058 -1)
(1.77988 0.0839925 -1)
(1.77904 0.0840637 -1)
(1.7829 0.085007 -1)
(1.77746 0.0846213 -1)
(1.77614 0.0856733 -1)
(1.77564 0.0863495 -1)
(1.775 0.0879062 -1)
(1.68006 0.184689 -1)
(1.68025 0.185475 -1)
(1.68057 0.186219 -1)
(1.68101 0.186902 -1)
(1.68155 0.187505 -1)
(1.68218 0.188014 -1)
(1.67999 0.183883 -1)
(1.68391 0.179002 -1)
(1.6831 0.179254 -1)
(1.68235 0.179638 -1)
(1.68167 0.180143 -1)
(1.68109 0.180755 -1)
(1.68028 0.182225 -1)
(1.68443 0.188851 1)
(1.68364 0.188696 1)
(1.78441 0.0868798 1)
(1.77988 0.0839925 1)
(1.78069 0.084058 1)
(1.78485 0.0884333 1)
(1.77904 0.0840637 1)
(1.68288 0.188414 1)
(1.68218 0.188014 1)
(1.68155 0.187505 1)
(1.68101 0.186902 1)
(1.68057 0.186219 1)
(1.68025 0.185475 1)
(1.68006 0.184689 1)
(1.67999 0.183883 1)
(1.68391 0.179002 1)
(1.775 0.0879062 1)
(1.78148 0.0842529 1)
(1.78222 0.084572 1)
(1.7829 0.085007 1)
(1.68028 0.182225 1)
(1.77746 0.0846213 1)
(1.78401 0.0861762 1)
(1.77564 0.0863495 1)
(1.77614 0.0856733 1)
(1.6831 0.179254 1)
(1.68109 0.180755 1)
(1.68167 0.180143 1)
(1.68235 0.179638 1)
)


// edges:

145
(
(14 15)
(16 17)
(15 18)
(19 16)
(18 20)
(21 19)
(20 22)
(23 21)
(22 24)
(25 23)
(24 26)
(27 25)
(26 28)
(29 27)
(28 30)
(31 29)
(30 32)
(33 31)
(32 34)
(35 33)
(34 36)
(37 35)
(36 38)
(39 37)
(38 40)
(41 39)
(40 42)
(43 41)
(42 44)
(45 43)
(44 46)
(47 45)
(48 49)
(50 51)
(52 48)
(51 53)
(54 52)
(53 55)
(56 54)
(55 57)
(58 56)
(57 59)
(60 58)
(59 61)
(62 60)
(61 63)
(64 62)
(63 65)
(66 64)
(65 67)
(68 66)
(67 69)
(70 68)
(69 71)
(72 70)
(71 73)
(74 72)
(73 75)
(76 74)
(75 77)
(78 76)
(77 79)
(47 80)
(81 82)
(80 0)
(0 83)
(83 84)
(82 85)
(85 17)
(86 87)
(87 88)
(88 89)
(89 90)
(84 1)
(1 91)
(91 86)
(92 2)
(2 93)
(93 94)
(94 3)
(90 4)
(4 92)
(95 49)
(3 95)
(96 97)
(97 98)
(98 99)
(99 100)
(100 101)
(101 81)
(102 96)
(78 103)
(103 104)
(104 105)
(105 106)
(106 107)
(107 5)
(5 108)
(108 6)
(6 102)
(109 110)
(14 109)
(111 7)
(112 113)
(7 114)
(114 46)
(115 112)
(110 116)
(116 117)
(117 118)
(118 119)
(119 120)
(120 121)
(121 122)
(122 123)
(124 79)
(125 8)
(113 126)
(126 127)
(127 128)
(129 9)
(50 125)
(130 10)
(10 115)
(128 11)
(11 131)
(131 111)
(8 132)
(132 133)
(12 130)
(133 12)
(134 124)
(123 13)
(13 129)
(9 135)
(135 136)
(137 134)
(136 137)
(7 0)
(11 1)
(10 4)
(12 2)
(8 3)
(9 5)
(13 6)
)

// * * * * * * * * * * * * * * * * * * * * * * * * * * * * * * * * * * * * * //


// ************************************************************************* //
