/*--------------------------------*- C++ -*----------------------------------*\
| =========                 |                                                 |
| \\      /  F ield         | OpenFOAM: The Open Source CFD Toolbox           |
|  \\    /   O peration     | Version:  v1912                                 |
|   \\  /    A nd           | Website:  www.openfoam.com                      |
|    \\/     M anipulation  |                                                 |
\*---------------------------------------------------------------------------*/
FoamFile
{
    version     2.0;
    format      ascii;
    class       extendedFeatureEdgeMesh;
    location    "constant/extendedFeatureEdgeMesh";
    object      twall.extendedFeatureEdgeMesh;
}
// * * * * * * * * * * * * * * * * * * * * * * * * * * * * * * * * * * * * * //

// points

204
(
(-0.02 -0.05 1)
(-0.02 -0.06 1)
(0.01 -0.09 1)
(0.02 -0.09 1)
(-0.02 -0.06 -1)
(-0.02 -0.05 -1)
(0.02 -0.09 -1)
(0.01 -0.09 -1)
(-0.02 0.05 -1)
(-0.02 0.05 1)
(-0.02 0.06 -1)
(-0.02 0.06 1)
(0.12 -0.09 -1)
(0.12 -0.09 1)
(0.13 -0.09 -1)
(0.13 -0.09 1)
(0.00996195 -0.0691284 -1)
(0.01 -0.07 -1)
(0.01 -0.07 1)
(0.00996195 -0.0691284 1)
(0.00984808 -0.0682635 -1)
(0.00984808 -0.0682635 1)
(0.00965926 -0.0674118 -1)
(0.00965926 -0.0674118 1)
(0.00939693 -0.0665798 -1)
(0.00939693 -0.0665798 1)
(0.00906308 -0.0657738 -1)
(0.00906308 -0.0657738 1)
(0.00866025 -0.065 -1)
(0.00866025 -0.065 1)
(0.00819152 -0.0642642 -1)
(0.00819152 -0.0642642 1)
(0.00766044 -0.0635721 -1)
(0.00766044 -0.0635721 1)
(0.00707107 -0.0629289 -1)
(0.00707107 -0.0629289 1)
(0.00642788 -0.0623396 -1)
(0.00642788 -0.0623396 1)
(0.00573576 -0.0618085 -1)
(0.00573576 -0.0618085 1)
(0.005 -0.0613398 -1)
(0.005 -0.0613398 1)
(0.00422618 -0.0609369 -1)
(0.00422618 -0.0609369 1)
(0.0034202 -0.0606031 -1)
(0.0034202 -0.0606031 1)
(0.00258819 -0.0603407 -1)
(0.00258819 -0.0603407 1)
(0.00173648 -0.0601519 -1)
(0.00173648 -0.0601519 1)
(0.000871557 -0.0600381 -1)
(0.000871557 -0.0600381 1)
(6.12323e-19 -0.06 -1)
(6.12323e-19 -0.06 1)
(1.22465e-18 -0.05 1)
(0.00125581 -0.0500395 1)
(0.00250666 -0.0501577 1)
(0.02 -0.07 1)
(0.0107165 -0.0531134 1)
(0.00963507 -0.0524739 1)
(0.00851559 -0.0519035 1)
(0.0190211 -0.0638197 1)
(0.0185955 -0.0626375 1)
(0.0180965 -0.0614844 1)
(0.0199605 -0.0687442 1)
(0.0198423 -0.0674933 1)
(0.0196457 -0.0662524 1)
(0.0193717 -0.0650262 1)
(0.00736249 -0.0514045 1)
(0.00618034 -0.0509789 1)
(0.0049738 -0.0506283 1)
(0.00374763 -0.0503543 1)
(0.0145794 -0.0563091 1)
(0.0136909 -0.0554206 1)
(0.0127485 -0.0545897 1)
(0.0117557 -0.0538197 1)
(0.0175261 -0.0603649 1)
(0.0168866 -0.0592835 1)
(0.0161803 -0.0582443 1)
(0.0154103 -0.0572515 1)
(1.22465e-18 -0.05 -1)
(0.00125581 -0.0500395 -1)
(0.00250666 -0.0501577 -1)
(0.00374763 -0.0503543 -1)
(0.0049738 -0.0506283 -1)
(0.00618034 -0.0509789 -1)
(0.00736249 -0.0514045 -1)
(0.00851559 -0.0519035 -1)
(0.00963507 -0.0524739 -1)
(0.0107165 -0.0531134 -1)
(0.0117557 -0.0538197 -1)
(0.0127485 -0.0545897 -1)
(0.0136909 -0.0554206 -1)
(0.0145794 -0.0563091 -1)
(0.0154103 -0.0572515 -1)
(0.0161803 -0.0582443 -1)
(0.0168866 -0.0592835 -1)
(0.0175261 -0.0603649 -1)
(0.0180965 -0.0614844 -1)
(0.0185955 -0.0626375 -1)
(0.0190211 -0.0638197 -1)
(0.0193717 -0.0650262 -1)
(0.0196457 -0.0662524 -1)
(0.0198423 -0.0674933 -1)
(0.0199605 -0.0687442 -1)
(0.02 -0.07 -1)
(0.1 0.05 -1)
(0.1 0.05 1)
(0.101495 0.0499441 1)
(0.101495 0.0499441 -1)
(0.102981 0.0497766 1)
(0.102981 0.0497766 -1)
(0.10445 0.0494986 1)
(0.10445 0.0494986 -1)
(0.105895 0.0491115 1)
(0.105895 0.0491115 -1)
(0.107307 0.0486175 1)
(0.107307 0.0486175 -1)
(0.108678 0.0480194 1)
(0.108678 0.0480194 -1)
(0.11 0.0473205 1)
(0.11 0.0473205 -1)
(0.111266 0.0465248 1)
(0.111266 0.0465248 -1)
(0.11247 0.0456366 1)
(0.11247 0.0456366 -1)
(0.113603 0.044661 1)
(0.113603 0.044661 -1)
(0.114661 0.0436035 1)
(0.114661 0.0436035 -1)
(0.115637 0.0424698 1)
(0.115637 0.0424698 -1)
(0.116525 0.0412664 1)
(0.116525 0.0412664 -1)
(0.117321 0.04 1)
(0.117321 0.04 -1)
(0.118019 0.0386777 1)
(0.118019 0.0386777 -1)
(0.118617 0.0373068 1)
(0.118617 0.0373068 -1)
(0.119112 0.0358951 1)
(0.119112 0.0358951 -1)
(0.119499 0.0344504 1)
(0.119499 0.0344504 -1)
(0.119777 0.0329808 1)
(0.119777 0.0329808 -1)
(0.119944 0.0314946 1)
(0.119944 0.0314946 -1)
(0.12 0.03 1)
(0.12 0.03 -1)
(0.13 0.03 -1)
(0.13 0.03 1)
(0.129945 0.0318114 -1)
(0.129945 0.0318114 1)
(0.129781 0.0336161 -1)
(0.129781 0.0336161 1)
(0.129509 0.0354077 -1)
(0.129509 0.0354077 1)
(0.129128 0.0371795 -1)
(0.129128 0.0371795 1)
(0.128642 0.0389251 -1)
(0.128642 0.0389251 1)
(0.12805 0.0406381 -1)
(0.12805 0.0406381 1)
(0.127357 0.0423124 -1)
(0.127357 0.0423124 1)
(0.126564 0.0439417 -1)
(0.126564 0.0439417 1)
(0.125673 0.0455201 -1)
(0.125673 0.0455201 1)
(0.124689 0.0470419 -1)
(0.124689 0.0470419 1)
(0.123616 0.0485016 -1)
(0.123616 0.0485016 1)
(0.122455 0.0498937 -1)
(0.122455 0.0498937 1)
(0.121213 0.0512132 -1)
(0.121213 0.0512132 1)
(0.119894 0.0524553 -1)
(0.119894 0.0524553 1)
(0.118502 0.0536155 -1)
(0.118502 0.0536155 1)
(0.117042 0.0546895 -1)
(0.117042 0.0546895 1)
(0.11552 0.0556734 -1)
(0.11552 0.0556734 1)
(0.113942 0.0565637 -1)
(0.113942 0.0565637 1)
(0.112312 0.057357 -1)
(0.112312 0.057357 1)
(0.110638 0.0580505 -1)
(0.110638 0.0580505 1)
(0.108925 0.0586416 -1)
(0.108925 0.0586416 1)
(0.107179 0.0591282 -1)
(0.107179 0.0591282 1)
(0.105408 0.0595086 -1)
(0.105408 0.0595086 1)
(0.103616 0.0597813 -1)
(0.103616 0.0597813 1)
(0.101811 0.0599453 -1)
(0.101811 0.0599453 1)
(0.1 0.06 -1)
(0.1 0.06 1)
)

// edges

212
(
(16 17)
(18 19)
(20 16)
(19 21)
(22 20)
(21 23)
(24 22)
(23 25)
(26 24)
(25 27)
(28 26)
(27 29)
(30 28)
(29 31)
(32 30)
(31 33)
(34 32)
(33 35)
(36 34)
(35 37)
(38 36)
(37 39)
(40 38)
(39 41)
(42 40)
(41 43)
(44 42)
(43 45)
(46 44)
(45 47)
(48 46)
(47 49)
(50 48)
(49 51)
(52 50)
(51 53)
(0 1)
(54 0)
(1 53)
(55 54)
(56 55)
(2 3)
(18 2)
(3 57)
(58 59)
(59 60)
(61 62)
(62 63)
(57 64)
(64 65)
(65 66)
(66 67)
(67 61)
(60 68)
(68 69)
(69 70)
(70 71)
(71 56)
(72 73)
(73 74)
(74 75)
(75 58)
(63 76)
(76 77)
(77 78)
(78 79)
(79 72)
(4 52)
(1 4)
(5 4)
(0 5)
(80 5)
(81 80)
(82 81)
(83 82)
(84 83)
(85 84)
(86 85)
(87 86)
(88 87)
(89 88)
(90 89)
(91 90)
(92 91)
(93 92)
(94 93)
(95 94)
(96 95)
(97 96)
(98 97)
(99 98)
(100 99)
(101 100)
(102 101)
(103 102)
(104 103)
(105 104)
(6 105)
(3 6)
(7 6)
(2 7)
(17 7)
(8 9)
(10 8)
(11 10)
(9 11)
(8 106)
(107 9)
(108 107)
(106 109)
(110 108)
(109 111)
(112 110)
(111 113)
(114 112)
(113 115)
(116 114)
(115 117)
(118 116)
(117 119)
(120 118)
(119 121)
(122 120)
(121 123)
(124 122)
(123 125)
(126 124)
(125 127)
(128 126)
(127 129)
(130 128)
(129 131)
(132 130)
(131 133)
(134 132)
(133 135)
(136 134)
(135 137)
(138 136)
(137 139)
(140 138)
(139 141)
(142 140)
(141 143)
(144 142)
(143 145)
(146 144)
(145 147)
(148 146)
(147 149)
(12 13)
(149 12)
(13 148)
(14 15)
(12 14)
(15 13)
(14 150)
(151 15)
(150 152)
(153 151)
(152 154)
(155 153)
(154 156)
(157 155)
(156 158)
(159 157)
(158 160)
(161 159)
(160 162)
(163 161)
(162 164)
(165 163)
(164 166)
(167 165)
(166 168)
(169 167)
(168 170)
(171 169)
(170 172)
(173 171)
(172 174)
(175 173)
(174 176)
(177 175)
(176 178)
(179 177)
(178 180)
(181 179)
(180 182)
(183 181)
(182 184)
(185 183)
(184 186)
(187 185)
(186 188)
(189 187)
(188 190)
(191 189)
(190 192)
(193 191)
(192 194)
(195 193)
(194 196)
(197 195)
(196 198)
(199 197)
(198 200)
(201 199)
(200 202)
(203 201)
(202 10)
(11 203)
)

// concaveStart mixedStart nonFeatureStart
16 16 16
// internalStart flatStart openStart multipleStart
212 212 212 212
// normals

400
(
(-0.999048 -0.043614 0)
(0 0 -1)
(-0.999048 -0.043614 0)
(0 -0 1)
(-0.991444 -0.13053 0)
(0 0 -1)
(-0.991444 -0.13053 0)
(0 -0 1)
(-0.976295 -0.216443 0)
(0 0 -1)
(-0.976295 -0.216443 0)
(0 -0 1)
(-0.953717 -0.300705 0)
(0 0 -1)
(-0.953717 -0.300705 0)
(0 -0 1)
(-0.923881 -0.382679 0)
(0 0 -1)
(-0.923881 -0.382679 0)
(0 -0 1)
(-0.887004 -0.461761 0)
(0 0 -1)
(-0.887004 -0.461761 0)
(0 -0 1)
(-0.843404 -0.53728 0)
(0 0 -1)
(-0.843404 -0.53728 0)
(0 -0 1)
(-0.793346 -0.608771 0)
(0 0 -1)
(-0.793346 -0.608771 0)
(0 -0 1)
(-0.737286 -0.675581 0)
(0 0 -1)
(-0.737286 -0.675581 0)
(0 -0 1)
(-0.675543 -0.73732 0)
(0 0 -1)
(-0.675543 -0.73732 0)
(0 -0 1)
(-0.608774 -0.793344 0)
(0 0 -1)
(-0.608774 -0.793344 0)
(0 -0 1)
(-0.537275 -0.843407 0)
(0 0 -1)
(-0.537275 -0.843407 0)
(0 -0 1)
(-0.461814 -0.886977 0)
(0 0 -1)
(-0.461814 -0.886977 0)
(0 -0 1)
(-0.382638 -0.923899 0)
(0 0 -1)
(-0.382638 -0.923899 0)
(0 -0 1)
(-0.300779 -0.953694 0)
(0 0 -1)
(-0.300779 -0.953694 0)
(0 -0 1)
(-0.216416 -0.976301 0)
(0 0 -1)
(-0.216416 -0.976301 0)
(0 -0 1)
(-0.130448 -0.991455 0)
(0 0 -1)
(-0.130448 -0.991455 0)
(0 0 1)
(-0.0436758 -0.999046 0)
(0 0 -1)
(-0.0436758 -0.999046 0)
(0 0 1)
(-0 0 1)
(-1 0 0)
(0 1 -0)
(0 0 1)
(0 -1 0)
(0 0 1)
(0.0314377 0.999506 -0)
(0 0 1)
(0.0940764 0.995565 -0)
(0 0 1)
(0 -1 0)
(-1 0 0)
(-0 0 1)
(1 0 0)
(0 0 1)
(0.50901 0.860761 -0)
(0 0 1)
(0.453987 0.891008 -0)
(0 0 1)
(0.940885 0.338725 -0)
(0 0 1)
(0.917752 0.397154 -0)
(0 0 1)
(0.999506 0.0314378 -0)
(0 0 1)
(0.995565 0.0940727 -0)
(0 0 1)
(0.987681 0.156483 -0)
(0 0 1)
(0.975932 0.218077 -0)
(0 0 1)
(0.960277 0.279049 -0)
(0 0 1)
(0.397156 0.917751 -0)
(0 0 1)
(0.338737 0.940881 -0)
(0 0 1)
(0.27904 0.96028 -0)
(0 0 1)
(0.218083 0.97593 -0)
(0 0 1)
(0.156472 0.987682 -0)
(0 0 1)
(0.707107 0.707107 -0)
(0 0 1)
(0.66134 0.750086 -0)
(0 0 1)
(0.612859 0.790192 -0)
(0 0 1)
(0.562116 0.827058 -0)
(0 0 1)
(0.891011 0.453981 -0)
(0 0 1)
(0.860755 0.509019 -0)
(0 0 1)
(0.827058 0.562117 -0)
(0 0 1)
(0.790191 0.612861 -0)
(0 0 1)
(0.750087 0.661339 -0)
(0 -1 0)
(0 0 -1)
(-1 0 0)
(0 1 0)
(0 0 -1)
(0.0314377 0.999506 0)
(0 0 -1)
(0.0940764 0.995565 0)
(0 0 -1)
(0.156472 0.987682 0)
(0 0 -1)
(0.218083 0.97593 0)
(0 0 -1)
(0.27904 0.96028 0)
(0 0 -1)
(0.338737 0.940881 0)
(0 0 -1)
(0.397156 0.917751 0)
(0 0 -1)
(0.453987 0.891008 0)
(0 0 -1)
(0.50901 0.860761 0)
(0 0 -1)
(0.562116 0.827058 0)
(0 0 -1)
(0.612859 0.790192 0)
(0 0 -1)
(0.66134 0.750086 0)
(0 0 -1)
(0.707107 0.707107 0)
(0 0 -1)
(0.750087 0.661339 0)
(0 0 -1)
(0.790191 0.612861 0)
(0 -0 -1)
(0.827058 0.562117 0)
(0 0 -1)
(0.860755 0.509019 0)
(0 0 -1)
(0.891011 0.453981 0)
(0 0 -1)
(0.917752 0.397154 0)
(0 0 -1)
(0.940885 0.338725 0)
(0 0 -1)
(0.960277 0.279049 0)
(0 0 -1)
(0.975932 0.218077 0)
(0 0 -1)
(0.987681 0.156483 0)
(0 0 -1)
(0.995565 0.0940727 0)
(-0 0 -1)
(0.999506 0.0314378 0)
(0 0 -1)
(1 0 -0)
(0 0 -1)
(0 -1 0)
(-1 0 0)
(-0 0 -1)
(-1 0 0)
(0 -1 0)
(0 0 -1)
(-1 0 0)
(0 1 0)
(-0 0 1)
(0 -1 0)
(0 0 1)
(-0.0373664 -0.999302 -0)
(0 0 1)
(-0.0373664 -0.999302 -0)
(0 0 -1)
(-0.112009 -0.993707 -0)
(0 0 1)
(-0.112009 -0.993707 -0)
(0 0 -1)
(-0.185944 -0.98256 -0)
(0 0 1)
(-0.185944 -0.98256 -0)
(0 0 -1)
(-0.258765 -0.96594 -0)
(0 -0 1)
(-0.258765 -0.96594 -0)
(0 0 -1)
(-0.33023 -0.9439 -0)
(0 -0 1)
(-0.33023 -0.9439 -0)
(0 0 -1)
(-0.399858 -0.916577 -0)
(0 -0 1)
(-0.399858 -0.916577 -0)
(0 0 -1)
(-0.467375 -0.884059 -0)
(0 -0 1)
(-0.467375 -0.884059 -0)
(0 0 -1)
(-0.532136 -0.846659 -0)
(0 -0 1)
(-0.532136 -0.846659 -0)
(0 0 -1)
(-0.59365 -0.804723 -0)
(0 -0 1)
(-0.59365 -0.804723 -0)
(0 0 -1)
(-0.652508 -0.757782 -0)
(0 -0 1)
(-0.652508 -0.757782 -0)
(0 0 -1)
(-0.706941 -0.707272 -0)
(0 -0 1)
(-0.706941 -0.707272 -0)
(0 0 -1)
(-0.75785 -0.652429 -0)
(0 -0 1)
(-0.75785 -0.652429 -0)
(0 0 -1)
(-0.804644 -0.593758 -0)
(0 -0 1)
(-0.804644 -0.593758 -0)
(0 0 -1)
(-0.846644 -0.532159 -0)
(0 -0 1)
(-0.846644 -0.532159 -0)
(0 0 -1)
(-0.884352 -0.466821 -0)
(0 -0 1)
(-0.884352 -0.466821 -0)
(0 0 -1)
(-0.916591 -0.399825 -0)
(0 -0 1)
(-0.916591 -0.399825 -0)
(0 0 -1)
(-0.943669 -0.330891 -0)
(0 -0 1)
(-0.943669 -0.330891 -0)
(0 0 -1)
(-0.965944 -0.258751 -0)
(0 -0 1)
(-0.965944 -0.258751 -0)
(0 0 -1)
(-0.982574 -0.185873 -0)
(0 -0 1)
(-0.982574 -0.185873 -0)
(0 0 -1)
(-0.993746 -0.111663 -0)
(0 -0 1)
(-0.993746 -0.111663 -0)
(0 0 -1)
(-0.999299 -0.037441 -0)
(0 -0 1)
(-0.999299 -0.037441 -0)
(0 0 -1)
(-1 0 0)
(0 -1 0)
(0 0 -1)
(-1 0 0)
(0 0 1)
(0 -1 0)
(1 0 0)
(0 0 -1)
(1 0 -0)
(-0 0 1)
(0.999539 0.0303493 0)
(0 0 -1)
(0.999539 0.0303493 0)
(-0 0 1)
(0.995896 0.0905022 0)
(0 0 -1)
(0.995896 0.0905022 0)
(-0 0 1)
(0.988672 0.150095 0)
(0 0 -1)
(0.988672 0.150095 0)
(0 0 1)
(0.977651 0.210234 0)
(0 0 -1)
(0.977651 0.210234 0)
(0 0 1)
(0.963359 0.268214 0)
(0 0 -1)
(0.963359 0.268214 0)
(0 0 1)
(0.945151 0.326633 0)
(0 0 -1)
(0.945151 0.326633 0)
(0 0 1)
(0.923982 0.382437 0)
(0 0 -1)
(0.923982 0.382437 0)
(0 0 1)
(0.899153 0.437634 0)
(0 0 -1)
(0.899153 0.437634 0)
(0 0 1)
(0.870832 0.49158 0)
(0 0 -1)
(0.870832 0.49158 0)
(0 0 1)
(0.839745 0.542981 0)
(0 0 -1)
(0.839745 0.542981 0)
(0 0 1)
(0.805733 0.592278 0)
(0 0 -1)
(0.805733 0.592278 0)
(0 0 1)
(0.767972 0.640483 0)
(0 0 -1)
(0.767972 0.640483 0)
(0 0 1)
(0.728167 0.6854 0)
(0 0 -1)
(0.728167 0.6854 0)
(0 0 1)
(0.685566 0.728011 0)
(0 0 -1)
(0.685566 0.728011 0)
(0 0 1)
(0.64025 0.768167 0)
(0 0 -1)
(0.64025 0.768167 0)
(0 0 1)
(0.592559 0.805527 0)
(0 0 -1)
(0.592559 0.805527 0)
(0 0 1)
(0.542893 0.839802 0)
(0 0 -1)
(0.542893 0.839802 0)
(0 0 1)
(0.491381 0.870944 0)
(0 0 -1)
(0.491381 0.870944 0)
(0 0 1)
(0.43761 0.899165 0)
(0 0 -1)
(0.43761 0.899165 0)
(0 0 1)
(0.382734 0.923858 0)
(0 -0 -1)
(0.382734 0.923858 0)
(0 0 1)
(0.326194 0.945303 0)
(0 0 -1)
(0.326194 0.945303 0)
(0 0 1)
(0.268462 0.96329 0)
(0 0 -1)
(0.268462 0.96329 0)
(0 0 1)
(0.210004 0.977701 0)
(0 0 -1)
(0.210004 0.977701 0)
(0 0 1)
(0.150446 0.988618 0)
(0 0 -1)
(0.150446 0.988618 0)
(0 0 1)
(0.0904852 0.995898 0)
(0 0 -1)
(0.0904852 0.995898 0)
(0 0 1)
(0.0301897 0.999544 0)
(0 0 -1)
(0.0301897 0.999544 0)
(0 0 1)
(0 0 -1)
(0 1 -0)
)

// normal volume types

400
(
0
0
0
0
0
0
0
0
0
0
0
0
0
0
0
0
0
0
0
0
0
0
0
0
0
0
0
0
0
0
0
0
0
0
0
0
0
0
0
0
0
0
0
0
0
0
0
0
0
0
0
0
0
0
0
0
0
0
0
0
0
0
0
0
0
0
0
0
0
0
0
0
0
0
0
0
0
0
0
0
0
0
0
0
0
0
0
0
0
0
0
0
0
0
0
0
0
0
0
0
0
0
0
0
0
0
0
0
0
0
0
0
0
0
0
0
0
0
0
0
0
0
0
0
0
0
0
0
0
0
0
0
0
0
0
0
0
0
0
0
0
0
0
0
0
0
0
0
0
0
0
0
0
0
0
0
0
0
0
0
0
0
0
0
0
0
0
0
0
0
0
0
0
0
0
0
0
0
0
0
0
0
0
0
0
0
0
0
0
0
0
0
0
0
0
0
0
0
0
0
0
0
0
0
0
0
0
0
0
0
0
0
0
0
0
0
0
0
0
0
0
0
0
0
0
0
0
0
0
0
0
0
0
0
0
0
0
0
0
0
0
0
0
0
0
0
0
0
0
0
0
0
0
0
0
0
0
0
0
0
0
0
0
0
0
0
0
0
0
0
0
0
0
0
0
0
0
0
0
0
0
0
0
0
0
0
0
0
0
0
0
0
0
0
0
0
0
0
0
0
0
0
0
0
0
0
0
0
0
0
0
0
0
0
0
0
0
0
0
0
0
0
0
0
0
0
0
0
0
0
0
0
0
0
0
0
0
0
0
0
0
0
0
0
0
0
0
0
0
0
0
0
0
0
0
0
0
0
0
0
0
0
0
0
0
0
0
0
0
0
0
0
0
0
0
0
0
0
0
0
0
0
0
0
0
0
0
0
0
0
0
0
0
0
0
0
0
0
0
0
)

// normalDirections

212
(
2(1 -1)
2(1 -1)
2(1 -1)
2(1 -1)
2(1 -1)
2(1 -1)
2(1 -1)
2(1 -1)
2(1 -1)
2(1 -1)
2(1 -1)
2(1 -1)
2(1 -1)
2(1 -1)
2(1 -1)
2(1 -1)
2(1 -1)
2(1 -1)
2(1 -1)
2(1 -1)
2(1 -1)
2(1 -1)
2(1 -1)
2(1 -1)
2(1 -1)
2(1 -1)
2(1 -1)
2(1 -1)
2(1 -1)
2(1 -1)
2(1 -1)
2(1 -1)
2(1 -1)
2(1 -1)
2(1 -1)
2(1 -1)
2(1 -1)
2(1 -1)
2(1 -1)
2(1 -1)
2(1 -1)
2(1 -1)
2(1 -1)
2(1 -1)
2(1 -1)
2(1 -1)
2(1 -1)
2(1 -1)
2(1 -1)
2(1 -1)
2(1 -1)
2(1 -1)
2(1 -1)
2(1 -1)
2(1 -1)
2(1 -1)
2(1 -1)
2(1 -1)
2(1 -1)
2(1 -1)
2(1 -1)
2(1 -1)
2(1 -1)
2(1 -1)
2(1 -1)
2(1 -1)
2(1 -1)
2(1 -1)
2(1 -1)
2(1 -1)
2(1 -1)
2(1 -1)
2(1 -1)
2(1 -1)
2(1 -1)
2(1 -1)
2(1 -1)
2(1 -1)
2(1 -1)
2(1 -1)
2(1 -1)
2(1 -1)
2(1 -1)
2(1 -1)
2(1 -1)
2(1 -1)
2(1 -1)
2(1 -1)
2(1 -1)
2(1 -1)
2(1 -1)
2(1 -1)
2(1 -1)
2(1 -1)
2(1 -1)
2(1 -1)
2(1 -1)
2(1 -1)
2(1 -1)
2(1 -1)
2(1 -1)
2(1 -1)
2(1 -1)
2(1 -1)
2(1 -1)
2(1 -1)
2(1 -1)
2(1 -1)
2(1 -1)
2(1 -1)
2(1 -1)
2(1 -1)
2(1 -1)
2(1 -1)
2(1 -1)
2(1 -1)
2(1 -1)
2(1 -1)
2(1 -1)
2(1 -1)
2(1 -1)
2(1 -1)
2(1 -1)
2(1 -1)
2(1 -1)
2(1 -1)
2(1 -1)
2(1 -1)
2(1 -1)
2(1 -1)
2(1 -1)
2(1 -1)
2(1 -1)
2(1 -1)
2(1 -1)
2(1 -1)
2(1 -1)
2(1 -1)
2(1 -1)
2(1 -1)
2(1 -1)
2(1 -1)
2(1 -1)
2(1 -1)
2(1 -1)
2(1 -1)
2(1 -1)
2(1 -1)
2(1 -1)
2(1 -1)
2(1 -1)
2(1 -1)
2(1 -1)
2(1 -1)
2(1 -1)
2(1 -1)
2(1 -1)
2(1 -1)
2(1 -1)
2(1 -1)
2(1 -1)
2(1 -1)
2(1 -1)
2(1 -1)
2(1 -1)
2(1 -1)
2(1 -1)
2(1 -1)
2(1 -1)
2(1 -1)
2(1 -1)
2(1 -1)
2(1 -1)
2(1 -1)
2(1 -1)
2(1 -1)
2(1 -1)
2(1 -1)
2(1 -1)
2(1 -1)
2(1 -1)
2(1 -1)
2(1 -1)
2(1 -1)
2(1 -1)
2(1 -1)
2(1 -1)
2(1 -1)
2(1 -1)
2(1 -1)
2(1 -1)
2(1 -1)
2(1 -1)
2(1 -1)
2(1 -1)
2(1 -1)
2(1 -1)
2(1 -1)
2(1 -1)
2(1 -1)
2(1 -1)
2(1 -1)
2(1 -1)
2(1 -1)
2(1 -1)
2(1 -1)
2(1 -1)
2(1 -1)
2(1 -1)
2(1 -1)
2(1 -1)
2(1 -1)
)

// edgeNormals

212
(
2(0 1)
2(2 3)
2(4 5)
2(6 7)
2(8 9)
2(10 11)
2(12 13)
2(14 15)
2(16 17)
2(18 19)
2(20 21)
2(22 23)
2(24 25)
2(26 27)
2(28 29)
2(30 31)
2(32 33)
2(34 35)
2(36 37)
2(38 39)
2(40 41)
2(42 43)
2(44 45)
2(46 47)
2(48 49)
2(50 51)
2(52 53)
2(54 55)
2(56 57)
2(58 59)
2(60 61)
2(62 63)
2(64 65)
2(66 67)
2(68 69)
2(70 71)
2(72 73)
2(72 74)
2(75 76)
2(77 78)
2(79 80)
2(81 82)
2(81 83)
2(84 85)
2(86 87)
2(88 89)
2(90 91)
2(92 93)
2(94 95)
2(96 97)
2(98 99)
2(100 101)
2(102 103)
2(104 105)
2(106 107)
2(108 109)
2(110 111)
2(112 113)
2(114 115)
2(116 117)
2(118 119)
2(120 121)
2(122 123)
2(124 125)
2(126 127)
2(128 129)
2(130 131)
2(132 133)
2(76 134)
2(134 133)
2(73 135)
2(135 136)
2(137 138)
2(139 140)
2(141 142)
2(143 144)
2(145 146)
2(147 148)
2(149 150)
2(151 152)
2(153 154)
2(155 156)
2(157 158)
2(159 160)
2(161 162)
2(163 164)
2(165 166)
2(167 168)
2(169 170)
2(171 172)
2(173 174)
2(175 176)
2(177 178)
2(179 180)
2(181 182)
2(183 184)
2(185 186)
2(187 188)
2(85 189)
2(189 188)
2(82 190)
2(190 191)
2(192 193)
2(192 194)
2(195 196)
2(195 197)
2(198 194)
2(193 199)
2(200 201)
2(202 203)
2(204 205)
2(206 207)
2(208 209)
2(210 211)
2(212 213)
2(214 215)
2(216 217)
2(218 219)
2(220 221)
2(222 223)
2(224 225)
2(226 227)
2(228 229)
2(230 231)
2(232 233)
2(234 235)
2(236 237)
2(238 239)
2(240 241)
2(242 243)
2(244 245)
2(246 247)
2(248 249)
2(250 251)
2(252 253)
2(254 255)
2(256 257)
2(258 259)
2(260 261)
2(262 263)
2(264 265)
2(266 267)
2(268 269)
2(270 271)
2(272 273)
2(274 275)
2(276 277)
2(278 279)
2(280 281)
2(282 283)
2(284 285)
2(284 286)
2(287 288)
2(289 290)
2(289 291)
2(285 288)
2(292 291)
2(290 293)
2(294 295)
2(296 297)
2(298 299)
2(300 301)
2(302 303)
2(304 305)
2(306 307)
2(308 309)
2(310 311)
2(312 313)
2(314 315)
2(316 317)
2(318 319)
2(320 321)
2(322 323)
2(324 325)
2(326 327)
2(328 329)
2(330 331)
2(332 333)
2(334 335)
2(336 337)
2(338 339)
2(340 341)
2(342 343)
2(344 345)
2(346 347)
2(348 349)
2(350 351)
2(352 353)
2(354 355)
2(356 357)
2(358 359)
2(360 361)
2(362 363)
2(364 365)
2(366 367)
2(368 369)
2(370 371)
2(372 373)
2(374 375)
2(376 377)
2(378 379)
2(380 381)
2(382 383)
2(384 385)
2(386 387)
2(388 389)
2(390 391)
2(392 393)
2(394 395)
2(396 397)
2(196 398)
2(399 197)
)

// featurePointNormals

16
(
3(72 73 74)
3(72 73 76)
3(81 82 83)
3(81 82 85)
3(132 133 134)
3(134 133 135)
3(187 188 189)
3(189 188 190)
3(192 193 194)
3(192 193 197)
3(192 194 196)
3(195 196 197)
3(284 285 286)
3(284 285 288)
3(289 290 291)
3(289 290 288)
)

// featurePointEdges

16
(
3(36 70 37)
3(38 68 36)
3(41 100 42)
3(43 98 41)
3(68 69 67)
3(70 71 69)
3(98 99 97)
3(100 101 99)
3(102 106 103)
3(105 107 102)
3(104 210 103)
3(104 211 105)
3(150 154 151)
3(152 155 150)
3(153 156 154)
3(155 157 153)
)

// regionEdges
0()


// ************************************************************************* //
