/*--------------------------------*- C++ -*----------------------------------*\
| =========                 |                                                 |
| \\      /  F ield         | OpenFOAM: The Open Source CFD Toolbox           |
|  \\    /   O peration     | Version:  v1912                                 |
|   \\  /    A nd           | Website:  www.openfoam.com                      |
|    \\/     M anipulation  |                                                 |
\*---------------------------------------------------------------------------*/
FoamFile
{
    version     2.0;
    format      ascii;
    class       extendedFeatureEdgeMesh;
    location    "constant/extendedFeatureEdgeMesh";
    object      vane0.extendedFeatureEdgeMesh;
}
// * * * * * * * * * * * * * * * * * * * * * * * * * * * * * * * * * * * * * //

// points

138
(
(1.3 -0.581188 -1)
(1.3 -0.581188 1)
(1.12049 -0.379248 1)
(1.1397 -0.381097 1)
(1.1397 -0.381097 -1)
(1.12049 -0.379248 -1)
(1.15866 -0.384702 1)
(1.15866 -0.384702 -1)
(1.17721 -0.390032 1)
(1.17721 -0.390032 -1)
(1.19519 -0.397043 1)
(1.19519 -0.397043 -1)
(1.21245 -0.405674 1)
(1.21245 -0.405674 -1)
(1.22885 -0.415854 1)
(1.22885 -0.415854 -1)
(1.24424 -0.427496 1)
(1.24424 -0.427496 -1)
(1.2585 -0.440501 1)
(1.2585 -0.440501 -1)
(1.2715 -0.454761 1)
(1.2715 -0.454761 -1)
(1.28315 -0.470154 1)
(1.28315 -0.470154 -1)
(1.29333 -0.486551 1)
(1.29333 -0.486551 -1)
(1.30196 -0.503813 1)
(1.30196 -0.503813 -1)
(1.30897 -0.521795 1)
(1.30897 -0.521795 -1)
(1.3143 -0.540344 1)
(1.3143 -0.540344 -1)
(1.3179 -0.559304 1)
(1.3179 -0.559304 -1)
(1.31975 -0.578515 1)
(1.31975 -0.578515 -1)
(1.29794 -0.560981 -1)
(1.29978 -0.579515 -1)
(1.29978 -0.579515 1)
(1.29794 -0.560981 1)
(1.29429 -0.542716 -1)
(1.29429 -0.542716 1)
(1.28887 -0.524896 -1)
(1.28887 -0.524896 1)
(1.28174 -0.507693 -1)
(1.28174 -0.507693 1)
(1.27295 -0.49127 -1)
(1.27295 -0.49127 1)
(1.2626 -0.475786 -1)
(1.2626 -0.475786 1)
(1.25078 -0.46139 -1)
(1.25078 -0.46139 1)
(1.23761 -0.44822 -1)
(1.23761 -0.44822 1)
(1.22321 -0.436402 -1)
(1.22321 -0.436402 1)
(1.20773 -0.426051 -1)
(1.20773 -0.426051 1)
(1.19131 -0.417265 -1)
(1.19131 -0.417265 1)
(1.1741 -0.410129 -1)
(1.1741 -0.410129 1)
(1.15628 -0.404711 -1)
(1.15628 -0.404711 1)
(1.13802 -0.401064 -1)
(1.13802 -0.401064 1)
(1.11948 -0.399223 -1)
(1.11948 -0.399223 1)
(1.3197 -0.580133 -1)
(1.11576 -0.380172 -1)
(1.11728 -0.379609 -1)
(1.31939 -0.581722 -1)
(1.31883 -0.58324 -1)
(1.31803 -0.584647 -1)
(1.11887 -0.379298 -1)
(1.31444 -0.587856 -1)
(1.31295 -0.588494 -1)
(1.31138 -0.588884 -1)
(1.30977 -0.589015 -1)
(1.30808 -0.588873 -1)
(1.31701 -0.585907 -1)
(1.3158 -0.586986 -1)
(1.30491 -0.587758 -1)
(1.30351 -0.586817 -1)
(1.30229 -0.585653 -1)
(1.30128 -0.584301 -1)
(1.30051 -0.582798 -1)
(1.30645 -0.588449 -1)
(1.11012 -0.387621 -1)
(1.11051 -0.38605 -1)
(1.11114 -0.384562 -1)
(1.11201 -0.383197 -1)
(1.11309 -0.381989 -1)
(1.11435 -0.380972 -1)
(1.10999 -0.389235 -1)
(1.11781 -0.398996 -1)
(1.1162 -0.398492 -1)
(1.1147 -0.397724 -1)
(1.11335 -0.396714 -1)
(1.11218 -0.395491 -1)
(1.11124 -0.39409 -1)
(1.11055 -0.392551 -1)
(1.11013 -0.390917 -1)
(1.11887 -0.379298 1)
(1.11728 -0.379609 1)
(1.31883 -0.58324 1)
(1.31939 -0.581722 1)
(1.30977 -0.589015 1)
(1.31138 -0.588884 1)
(1.3197 -0.580133 1)
(1.30808 -0.588873 1)
(1.11576 -0.380172 1)
(1.11435 -0.380972 1)
(1.11309 -0.381989 1)
(1.11201 -0.383197 1)
(1.11114 -0.384562 1)
(1.11051 -0.38605 1)
(1.11012 -0.387621 1)
(1.10999 -0.389235 1)
(1.11781 -0.398996 1)
(1.30051 -0.582798 1)
(1.31295 -0.588494 1)
(1.31444 -0.587856 1)
(1.3158 -0.586986 1)
(1.11055 -0.392551 1)
(1.11124 -0.39409 1)
(1.30491 -0.587758 1)
(1.30645 -0.588449 1)
(1.31701 -0.585907 1)
(1.31803 -0.584647 1)
(1.30128 -0.584301 1)
(1.30229 -0.585653 1)
(1.30351 -0.586817 1)
(1.1162 -0.398492 1)
(1.11013 -0.390917 1)
(1.11218 -0.395491 1)
(1.11335 -0.396714 1)
(1.1147 -0.397724 1)
)

// edges

139
(
(2 3)
(4 5)
(3 6)
(7 4)
(6 8)
(9 7)
(8 10)
(11 9)
(10 12)
(13 11)
(12 14)
(15 13)
(14 16)
(17 15)
(16 18)
(19 17)
(18 20)
(21 19)
(20 22)
(23 21)
(22 24)
(25 23)
(24 26)
(27 25)
(26 28)
(29 27)
(28 30)
(31 29)
(30 32)
(33 31)
(32 34)
(35 33)
(36 37)
(38 39)
(40 36)
(39 41)
(42 40)
(41 43)
(44 42)
(43 45)
(46 44)
(45 47)
(48 46)
(47 49)
(50 48)
(49 51)
(52 50)
(51 53)
(54 52)
(53 55)
(56 54)
(55 57)
(58 56)
(57 59)
(60 58)
(59 61)
(62 60)
(61 63)
(64 62)
(63 65)
(66 64)
(65 67)
(35 68)
(69 70)
(68 71)
(71 72)
(72 73)
(70 74)
(74 5)
(75 76)
(76 77)
(77 78)
(78 79)
(73 80)
(80 81)
(81 75)
(82 83)
(83 84)
(84 85)
(85 86)
(79 87)
(87 82)
(0 37)
(86 0)
(88 89)
(89 90)
(90 91)
(91 92)
(92 93)
(93 69)
(94 88)
(66 95)
(95 96)
(96 97)
(97 98)
(98 99)
(99 100)
(100 101)
(101 102)
(102 94)
(103 104)
(2 103)
(105 106)
(107 108)
(106 109)
(109 34)
(110 107)
(104 111)
(111 112)
(112 113)
(113 114)
(114 115)
(115 116)
(116 117)
(117 118)
(119 67)
(1 120)
(108 121)
(121 122)
(122 123)
(124 125)
(38 1)
(126 127)
(127 110)
(123 128)
(128 129)
(129 105)
(120 130)
(130 131)
(132 126)
(131 132)
(133 119)
(118 134)
(134 124)
(125 135)
(135 136)
(137 133)
(136 137)
(1 0)
)

// concaveStart mixedStart nonFeatureStart
2 2 2
// internalStart flatStart openStart multipleStart
139 139 139 139
// normals

272
(
(0.0958084 0.9954 -0)
(0 0 1)
(0.0958084 0.9954 0)
(0 0 -1)
(0.186791 0.9824 -0)
(0 0 1)
(0.186791 0.9824 0)
(0 0 -1)
(0.276159 0.961112 -0)
(0 0 1)
(0.276159 0.961112 0)
(0 0 -1)
(0.363291 0.931676 -0)
(0 0 1)
(0.363291 0.931676 0)
(0 0 -1)
(0.447254 0.894407 -0)
(0 0 1)
(0.447254 0.894407 0)
(0 0 -1)
(0.527389 0.849624 -0)
(0 0 1)
(0.527389 0.849624 0)
(0 0 -1)
(0.603293 0.797519 -0)
(0 0 1)
(0.603293 0.797519 0)
(0 0 -1)
(0.673848 0.73887 -0)
(0 0 1)
(0.673848 0.73887 0)
(0 0 -1)
(0.739001 0.673704 -0)
(0 0 1)
(0.739001 0.673704 0)
(0 0 -1)
(0.797376 0.603483 -0)
(-0 0 1)
(0.797376 0.603483 0)
(0 0 -1)
(0.849581 0.527458 -0)
(-0 0 1)
(0.849581 0.527458 0)
(0 0 -1)
(0.894448 0.447173 -0)
(-0 0 1)
(0.894448 0.447173 0)
(0 0 -1)
(0.931707 0.363211 -0)
(-0 0 1)
(0.931707 0.363211 0)
(0 0 -1)
(0.961109 0.27617 -0)
(-0 0 1)
(0.961109 0.27617 0)
(0 0 -1)
(0.982447 0.186541 -0)
(-0 0 1)
(0.982447 0.186541 0)
(0 0 -1)
(0.995395 0.0958561 -0)
(-0 0 1)
(0.995395 0.0958561 0)
(0 0 -1)
(-0.995108 -0.0987911 0)
(0 0 -1)
(-0.995108 -0.0987911 0)
(0 -0 1)
(-0.980611 -0.195965 0)
(0 0 -1)
(-0.980611 -0.195965 0)
(0 -0 1)
(-0.956726 -0.290989 0)
(0 0 -1)
(-0.956726 -0.290989 0)
(0 -0 1)
(-0.923798 -0.38288 0)
(0 0 -1)
(-0.923798 -0.38288 0)
(0 -0 1)
(-0.881662 -0.471882 0)
(0 0 -1)
(-0.881662 -0.471882 0)
(0 -0 1)
(-0.83137 -0.55572 0)
(0 0 -1)
(-0.83137 -0.55572 0)
(0 -0 1)
(-0.772867 -0.634568 0)
(0 0 -1)
(-0.772867 -0.634568 0)
(0 -0 1)
(-0.707106 -0.707108 0)
(0 0 -1)
(-0.707106 -0.707108 0)
(0 -0 1)
(-0.634401 -0.773004 0)
(0 0 -1)
(-0.634401 -0.773004 0)
(0 -0 1)
(-0.555854 -0.83128 0)
(0 0 -1)
(-0.555854 -0.83128 0)
(0 -0 1)
(-0.471786 -0.881713 0)
(0 0 -1)
(-0.471786 -0.881713 0)
(0 -0 1)
(-0.383021 -0.92374 0)
(0 0 -1)
(-0.383021 -0.92374 0)
(0 -0 1)
(-0.290893 -0.956756 0)
(0 0 -1)
(-0.290893 -0.956756 0)
(0 -0 1)
(-0.195858 -0.980632 0)
(0 0 -1)
(-0.195858 -0.980632 0)
(0 -0 1)
(-0.0988132 -0.995106 0)
(0 0 -1)
(-0.0988132 -0.995106 0)
(0 -0 1)
(0 0 -1)
(0.999524 -0.0308554 0)
(0 0 -1)
(-0.347341 0.937739 0)
(-0 0 -1)
(0.981503 -0.191448 0)
(0 0 -1)
(0.938183 -0.346141 0)
(0 0 -1)
(0.869306 -0.494274 0)
(0 0 -1)
(-0.191951 0.981405 0)
(0 0 -1)
(-0.0308559 0.999524 0)
(0 0 -1)
(0.393626 -0.919271 0)
(-0 0 -1)
(0.241079 -0.970506 0)
(0 0 -1)
(0.0811032 -0.996706 0)
(0 0 -1)
(-0.0837144 -0.99649 0)
(-0 0 -1)
(0.777254 -0.629187 0)
(0 0 -1)
(0.665529 -0.746372 0)
(0 0 -1)
(0.53889 -0.842376 0)
(0 0 -1)
(-0.557836 -0.829951 0)
(-0.690316 -0.723508 0)
(0 0 -1)
(-0.801156 -0.598456 0)
(0 0 -1)
(-0.890008 -0.455945 0)
(0 0 -1)
(-0.251768 -0.967788 0)
(0 0 -1)
(-0.409363 -0.912372 0)
(0 0 -1)
(-0.991469 -0.13034 0)
(0 0 -1)
(-0.953296 -0.302037 0)
(0 0 -1)
(-0.970551 0.240898 0)
(0 0 -1)
(-0.92086 0.389893 0)
(0 0 -1)
(-0.843278 0.537477 0)
(0 0 -1)
(-0.74549 0.666516 0)
(0 0 -1)
(-0.628103 0.77813 0)
(0 0 -1)
(-0.49347 0.869763 0)
(0 -0 -1)
(-0.996769 0.0803202 0)
(0 0 -1)
(-0.134692 -0.990888 0)
(0 0 -1)
(-0.298734 -0.954337 0)
(0 0 -1)
(-0.455739 -0.890114 0)
(-0.599072 -0.800695 0)
(0 0 -1)
(-0.722578 -0.691289 0)
(0 0 -1)
(-0.830416 -0.557144 0)
(0 0 -1)
(-0.912489 -0.409101 0)
(0 0 -1)
(-0.968504 -0.248997 0)
(0 0 -1)
(-0.996556 -0.0829183 0)
(0 0 1)
(-0.191951 0.981405 0)
(0 -0 1)
(-0.0308559 0.999524 0)
(0 -0 1)
(0.938183 -0.346141 0)
(0 -0 1)
(0.0811032 -0.996706 0)
(0 -0 1)
(0.981503 -0.191448 0)
(-0 0 1)
(0.999524 -0.0308554 0)
(0 0 1)
(-0.0837144 -0.99649 0)
(0 0 1)
(-0.347341 0.937739 0)
(0 0 1)
(-0.49347 0.869763 0)
(0 0 1)
(-0.628103 0.77813 0)
(0 0 1)
(-0.74549 0.666516 0)
(0 0 1)
(-0.843278 0.537477 0)
(0 0 1)
(-0.92086 0.389893 0)
(0 0 1)
(-0.970551 0.240898 0)
(0 0 1)
(-0.996769 0.0803202 0)
(0 0 1)
(-0.134692 -0.990888 0)
(0 0 1)
(-0.953296 -0.302037 0)
(0 -0 1)
(0.241079 -0.970506 0)
(0 0 1)
(0.393626 -0.919271 0)
(0 0 1)
(0.53889 -0.842376 0)
(0 0 1)
(-0.912489 -0.409101 0)
(-0 -0 1)
(-0.991469 -0.13034 0)
(0 0 1)
(-0.409363 -0.912372 0)
(0 0 1)
(-0.251768 -0.967788 0)
(0 -0 1)
(0.665529 -0.746372 0)
(0 0 1)
(0.777254 -0.629187 0)
(0 0 1)
(0.869306 -0.494274 0)
(0 0 1)
(-0.890008 -0.455945 0)
(0 0 1)
(-0.801156 -0.598456 0)
(0 0 1)
(-0.557836 -0.829951 0)
(-0.690316 -0.723508 0)
(0 0 1)
(-0.298734 -0.954337 0)
(0 0 1)
(-0.996556 -0.0829183 0)
(0 0 1)
(-0.968504 -0.248997 0)
(0 0 1)
(-0.830416 -0.557144 0)
(0 0 1)
(-0.722578 -0.691289 0)
(0 0 1)
(-0.455739 -0.890114 0)
(-0.599072 -0.800695 0)
)

// normal volume types

272
(
0
0
0
0
0
0
0
0
0
0
0
0
0
0
0
0
0
0
0
0
0
0
0
0
0
0
0
0
0
0
0
0
0
0
0
0
0
0
0
0
0
0
0
0
0
0
0
0
0
0
0
0
0
0
0
0
0
0
0
0
0
0
0
0
0
0
0
0
0
0
0
0
0
0
0
0
0
0
0
0
0
0
0
0
0
0
0
0
0
0
0
0
0
0
0
0
0
0
0
0
0
0
0
0
0
0
0
0
0
0
0
0
0
0
0
0
0
0
0
0
0
0
0
0
0
0
0
0
0
0
0
0
0
0
0
0
0
0
0
0
0
0
0
0
0
0
0
0
0
0
0
0
0
0
0
0
0
0
0
0
0
0
0
0
0
0
0
0
0
0
0
0
0
0
0
0
0
0
0
0
0
0
0
0
0
0
0
0
0
0
0
0
0
0
0
0
0
0
0
0
0
0
0
0
0
0
0
0
0
0
0
0
0
0
0
0
0
0
0
0
0
0
0
0
0
0
0
0
0
0
0
0
0
0
0
0
0
0
0
0
0
0
0
0
0
0
0
0
0
0
0
0
0
0
0
0
0
0
0
0
0
0
0
0
0
0
0
0
0
0
0
0
)

// normalDirections

139
(
2(1 -1)
2(1 -1)
2(1 -1)
2(1 -1)
2(1 -1)
2(1 -1)
2(1 -1)
2(1 -1)
2(1 -1)
2(1 -1)
2(1 -1)
2(1 -1)
2(1 -1)
2(1 -1)
2(1 -1)
2(1 -1)
2(1 -1)
2(1 -1)
2(1 -1)
2(1 -1)
2(1 -1)
2(1 -1)
2(1 -1)
2(1 -1)
2(1 -1)
2(1 -1)
2(1 -1)
2(1 -1)
2(1 -1)
2(1 -1)
2(1 -1)
2(1 -1)
2(1 -1)
2(1 -1)
2(1 -1)
2(1 -1)
2(1 -1)
2(1 -1)
2(1 -1)
2(1 -1)
2(1 -1)
2(1 -1)
2(1 -1)
2(1 -1)
2(1 -1)
2(1 -1)
2(1 -1)
2(1 -1)
2(1 -1)
2(1 -1)
2(1 -1)
2(1 -1)
2(1 -1)
2(1 -1)
2(1 -1)
2(1 -1)
2(1 -1)
2(1 -1)
2(1 -1)
2(1 -1)
2(1 -1)
2(1 -1)
2(1 -1)
2(1 -1)
2(1 -1)
2(1 -1)
2(1 -1)
2(1 -1)
2(1 -1)
2(1 -1)
2(1 -1)
2(1 -1)
2(1 -1)
2(1 -1)
2(1 -1)
2(1 -1)
2(1 -1)
2(1 -1)
2(1 -1)
2(1 -1)
2(1 -1)
2(1 -1)
2(1 -1)
2(1 -1)
2(1 -1)
2(1 -1)
2(1 -1)
2(1 -1)
2(1 -1)
2(1 -1)
2(1 -1)
2(1 -1)
2(1 -1)
2(1 -1)
2(1 -1)
2(1 -1)
2(1 -1)
2(1 -1)
2(1 -1)
2(1 -1)
2(1 -1)
2(1 -1)
2(1 -1)
2(1 -1)
2(1 -1)
2(1 -1)
2(1 -1)
2(1 -1)
2(1 -1)
2(1 -1)
2(1 -1)
2(1 -1)
2(1 -1)
2(1 -1)
2(1 -1)
2(1 -1)
2(1 -1)
2(1 -1)
2(1 -1)
2(1 -1)
2(1 -1)
2(1 -1)
2(1 -1)
2(1 -1)
2(1 -1)
2(1 -1)
2(1 -1)
2(1 -1)
2(1 -1)
2(1 -1)
2(1 -1)
2(1 -1)
2(1 -1)
2(1 -1)
2(1 -1)
2(1 -1)
2(1 -1)
2(1 -1)
2(1 -1)
)

// edgeNormals

139
(
2(0 1)
2(2 3)
2(4 5)
2(6 7)
2(8 9)
2(10 11)
2(12 13)
2(14 15)
2(16 17)
2(18 19)
2(20 21)
2(22 23)
2(24 25)
2(26 27)
2(28 29)
2(30 31)
2(32 33)
2(34 35)
2(36 37)
2(38 39)
2(40 41)
2(42 43)
2(44 45)
2(46 47)
2(48 49)
2(50 51)
2(52 53)
2(54 55)
2(56 57)
2(58 59)
2(60 61)
2(62 63)
2(64 65)
2(66 67)
2(68 69)
2(70 71)
2(72 73)
2(74 75)
2(76 77)
2(78 79)
2(80 81)
2(82 83)
2(84 85)
2(86 87)
2(88 89)
2(90 91)
2(92 93)
2(94 95)
2(96 97)
2(98 99)
2(100 101)
2(102 103)
2(104 105)
2(106 107)
2(108 109)
2(110 111)
2(112 113)
2(114 115)
2(116 117)
2(118 119)
2(120 121)
2(122 123)
2(124 125)
2(126 127)
2(128 129)
2(130 131)
2(132 133)
2(134 135)
2(136 137)
2(138 139)
2(140 141)
2(142 143)
2(144 145)
2(146 147)
2(148 149)
2(150 151)
2(152 153)
2(152 154)
2(155 156)
2(157 158)
2(159 160)
2(161 162)
2(163 164)
2(165 166)
2(167 168)
2(169 170)
2(171 172)
2(173 174)
2(175 176)
2(177 178)
2(179 180)
2(181 182)
2(183 184)
2(185 186)
2(185 187)
2(188 189)
2(190 191)
2(192 193)
2(194 195)
2(196 197)
2(198 199)
2(200 201)
2(202 203)
2(204 205)
2(206 207)
2(208 209)
2(210 211)
2(212 213)
2(214 215)
2(216 217)
2(218 219)
2(220 221)
2(222 223)
2(224 225)
2(226 227)
2(228 229)
2(230 231)
2(232 233)
2(234 235)
2(236 237)
2(238 239)
2(240 241)
2(242 243)
2(244 245)
2(246 247)
2(248 249)
2(250 251)
2(252 253)
2(254 255)
2(256 257)
2(256 258)
2(259 260)
2(261 262)
2(263 264)
2(265 266)
2(267 268)
2(269 270)
2(269 271)
2(166 241)
)

// featurePointNormals

2
(
3(163 164 166)
3(230 231 241)
)

// featurePointEdges

2
(
3(83 138 82)
3(121 138 116)
)

// regionEdges
0()


// ************************************************************************* //
