/*--------------------------------*- C++ -*----------------------------------*\
| =========                 |                                                 |
| \\      /  F ield         | OpenFOAM: The Open Source CFD Toolbox           |
|  \\    /   O peration     | Version:  v1912                                 |
|   \\  /    A nd           | Website:  www.openfoam.com                      |
|    \\/     M anipulation  |                                                 |
\*---------------------------------------------------------------------------*/
FoamFile
{
    version     2.0;
    format      ascii;
    class       extendedFeatureEdgeMesh;
    location    "constant/extendedFeatureEdgeMesh";
    object      vane7.extendedFeatureEdgeMesh;
}
// * * * * * * * * * * * * * * * * * * * * * * * * * * * * * * * * * * * * * //

// points

138
(
(1.4747 -0.228361 -1)
(1.47351 -0.230454 -1)
(1.46675 -0.230908 -1)
(1.46525 -0.228899 -1)
(1.46822 -0.231725 -1)
(1.37062 -0.134545 -1)
(1.37006 -0.132958 -1)
(1.4747 -0.228361 1)
(1.46525 -0.228899 1)
(1.37062 -0.134545 1)
(1.46822 -0.231725 1)
(1.47351 -0.230454 1)
(1.46675 -0.230908 1)
(1.37006 -0.132958 1)
(1.37524 -0.127124 1)
(1.38485 -0.128048 1)
(1.38485 -0.128048 -1)
(1.37524 -0.127124 -1)
(1.39433 -0.129851 1)
(1.39433 -0.129851 -1)
(1.4036 -0.132516 1)
(1.4036 -0.132516 -1)
(1.41259 -0.136021 1)
(1.41259 -0.136021 -1)
(1.42122 -0.140337 1)
(1.42122 -0.140337 -1)
(1.42942 -0.145427 1)
(1.42942 -0.145427 -1)
(1.43712 -0.151248 1)
(1.43712 -0.151248 -1)
(1.44425 -0.157751 1)
(1.44425 -0.157751 -1)
(1.45075 -0.16488 1)
(1.45075 -0.16488 -1)
(1.45657 -0.172577 1)
(1.45657 -0.172577 -1)
(1.46166 -0.180776 1)
(1.46166 -0.180776 -1)
(1.46598 -0.189407 1)
(1.46598 -0.189407 -1)
(1.46948 -0.198398 1)
(1.46948 -0.198398 -1)
(1.47215 -0.207672 1)
(1.47215 -0.207672 -1)
(1.47395 -0.217152 1)
(1.47395 -0.217152 -1)
(1.47488 -0.226758 1)
(1.47488 -0.226758 -1)
(1.46397 -0.21799 -1)
(1.46489 -0.227258 -1)
(1.46489 -0.227258 1)
(1.46397 -0.21799 1)
(1.46214 -0.208858 -1)
(1.46214 -0.208858 1)
(1.45944 -0.199948 -1)
(1.45944 -0.199948 1)
(1.45587 -0.191346 -1)
(1.45587 -0.191346 1)
(1.45147 -0.183135 -1)
(1.45147 -0.183135 1)
(1.4463 -0.175393 -1)
(1.4463 -0.175393 1)
(1.44039 -0.168195 -1)
(1.44039 -0.168195 1)
(1.43381 -0.16161 -1)
(1.43381 -0.16161 1)
(1.42661 -0.155701 -1)
(1.42661 -0.155701 1)
(1.41887 -0.150525 -1)
(1.41887 -0.150525 1)
(1.41065 -0.146132 -1)
(1.41065 -0.146132 1)
(1.40205 -0.142564 -1)
(1.40205 -0.142564 1)
(1.39314 -0.139856 -1)
(1.39314 -0.139856 1)
(1.38401 -0.138032 -1)
(1.38401 -0.138032 1)
(1.37474 -0.137111 -1)
(1.37474 -0.137111 1)
(1.47485 -0.227567 -1)
(1.37288 -0.127586 -1)
(1.37364 -0.127304 -1)
(1.47441 -0.22912 -1)
(1.47401 -0.229824 -1)
(1.37443 -0.127149 -1)
(1.47222 -0.231428 -1)
(1.47148 -0.231747 -1)
(1.47069 -0.231942 -1)
(1.46988 -0.232007 -1)
(1.46904 -0.231936 -1)
(1.4729 -0.230993 -1)
(1.46746 -0.231379 -1)
(1.46614 -0.230327 -1)
(1.46564 -0.229651 -1)
(1.465 -0.228094 -1)
(1.37006 -0.131311 -1)
(1.37025 -0.130525 -1)
(1.37057 -0.129781 -1)
(1.37101 -0.129098 -1)
(1.37155 -0.128495 -1)
(1.37218 -0.127986 -1)
(1.36999 -0.132117 -1)
(1.37391 -0.136998 -1)
(1.3731 -0.136746 -1)
(1.37235 -0.136362 -1)
(1.37167 -0.135857 -1)
(1.37109 -0.135245 -1)
(1.37028 -0.133775 -1)
(1.37443 -0.127149 1)
(1.37364 -0.127304 1)
(1.47441 -0.22912 1)
(1.46988 -0.232007 1)
(1.47069 -0.231942 1)
(1.47485 -0.227567 1)
(1.46904 -0.231936 1)
(1.37288 -0.127586 1)
(1.37218 -0.127986 1)
(1.37155 -0.128495 1)
(1.37101 -0.129098 1)
(1.37057 -0.129781 1)
(1.37025 -0.130525 1)
(1.37006 -0.131311 1)
(1.36999 -0.132117 1)
(1.37391 -0.136998 1)
(1.465 -0.228094 1)
(1.47148 -0.231747 1)
(1.47222 -0.231428 1)
(1.4729 -0.230993 1)
(1.37028 -0.133775 1)
(1.46746 -0.231379 1)
(1.47401 -0.229824 1)
(1.46564 -0.229651 1)
(1.46614 -0.230327 1)
(1.3731 -0.136746 1)
(1.37109 -0.135245 1)
(1.37167 -0.135857 1)
(1.37235 -0.136362 1)
)

// edges

145
(
(14 15)
(16 17)
(15 18)
(19 16)
(18 20)
(21 19)
(20 22)
(23 21)
(22 24)
(25 23)
(24 26)
(27 25)
(26 28)
(29 27)
(28 30)
(31 29)
(30 32)
(33 31)
(32 34)
(35 33)
(34 36)
(37 35)
(36 38)
(39 37)
(38 40)
(41 39)
(40 42)
(43 41)
(42 44)
(45 43)
(44 46)
(47 45)
(48 49)
(50 51)
(52 48)
(51 53)
(54 52)
(53 55)
(56 54)
(55 57)
(58 56)
(57 59)
(60 58)
(59 61)
(62 60)
(61 63)
(64 62)
(63 65)
(66 64)
(65 67)
(68 66)
(67 69)
(70 68)
(69 71)
(72 70)
(71 73)
(74 72)
(73 75)
(76 74)
(75 77)
(78 76)
(77 79)
(47 80)
(81 82)
(80 0)
(0 83)
(83 84)
(82 85)
(85 17)
(86 87)
(87 88)
(88 89)
(89 90)
(84 1)
(1 91)
(91 86)
(92 2)
(2 93)
(93 94)
(94 3)
(90 4)
(4 92)
(95 49)
(3 95)
(96 97)
(97 98)
(98 99)
(99 100)
(100 101)
(101 81)
(102 96)
(78 103)
(103 104)
(104 105)
(105 106)
(106 107)
(107 5)
(5 108)
(108 6)
(6 102)
(109 110)
(14 109)
(111 7)
(112 113)
(7 114)
(114 46)
(115 112)
(110 116)
(116 117)
(117 118)
(118 119)
(119 120)
(120 121)
(121 122)
(122 123)
(124 79)
(125 8)
(113 126)
(126 127)
(127 128)
(129 9)
(50 125)
(130 10)
(10 115)
(128 11)
(11 131)
(131 111)
(8 132)
(132 133)
(12 130)
(133 12)
(134 124)
(123 13)
(13 129)
(9 135)
(135 136)
(137 134)
(136 137)
(7 0)
(11 1)
(10 4)
(12 2)
(8 3)
(9 5)
(13 6)
)

// concaveStart mixedStart nonFeatureStart
14 14 14
// internalStart flatStart openStart multipleStart
145 145 145 145
// normals

272
(
(0.0957085 0.995409 -0)
(0 0 1)
(0.0957085 0.995409 0)
(0 0 -1)
(0.18684 0.98239 -0)
(0 0 1)
(0.18684 0.98239 0)
(0 0 -1)
(0.276297 0.961072 -0)
(0 0 1)
(0.276297 0.961072 0)
(0 0 -1)
(0.363245 0.931694 -0)
(0 0 1)
(0.363245 0.931694 0)
(0 0 -1)
(0.4473 0.894384 -0)
(0 0 1)
(0.4473 0.894384 0)
(0 0 -1)
(0.527386 0.849626 -0)
(0 0 1)
(0.527386 0.849626 0)
(0 0 -1)
(0.603047 0.797706 -0)
(0 0 1)
(0.603047 0.797706 0)
(0 0 -1)
(0.673872 0.738848 -0)
(0 0 1)
(0.673872 0.738848 0)
(0 0 -1)
(0.738954 0.673756 -0)
(0 0 1)
(0.738954 0.673756 0)
(0 0 -1)
(0.797642 0.603131 -0)
(-0 0 1)
(0.797642 0.603131 0)
(0 0 -1)
(0.849596 0.527435 -0)
(-0 0 1)
(0.849596 0.527435 0)
(0 0 -1)
(0.89424 0.447588 -0)
(-0 0 1)
(0.89424 0.447588 0)
(0 0 -1)
(0.931882 0.36276 -0)
(-0 0 1)
(0.931882 0.36276 0)
(0 0 -1)
(0.960969 0.276657 -0)
(-0 0 1)
(0.960969 0.276657 0)
(0 0 -1)
(0.982446 0.186547 -0)
(-0 0 1)
(0.982446 0.186547 0)
(0 0 -1)
(0.995347 0.0963589 -0)
(-0 0 1)
(0.995347 0.0963589 0)
(0 0 -1)
(-0.995109 -0.0987869 0)
(0 0 -1)
(-0.995109 -0.0987869 0)
(0 -0 1)
(-0.980507 -0.196486 0)
(0 0 -1)
(-0.980507 -0.196486 0)
(0 -0 1)
(-0.957025 -0.290005 0)
(0 0 -1)
(-0.957025 -0.290005 0)
(0 -0 1)
(-0.923617 -0.383316 0)
(0 0 -1)
(-0.923617 -0.383316 0)
(0 -0 1)
(-0.881423 -0.472327 0)
(0 0 -1)
(-0.881423 -0.472327 0)
(0 -0 1)
(-0.831621 -0.555343 0)
(0 0 -1)
(-0.831621 -0.555343 0)
(0 -0 1)
(-0.772864 -0.634572 0)
(0 0 -1)
(-0.772864 -0.634572 0)
(0 -0 1)
(-0.707375 -0.706839 0)
(0 0 -1)
(-0.707375 -0.706839 0)
(0 -0 1)
(-0.634401 -0.773004 0)
(0 0 -1)
(-0.634401 -0.773004 0)
(0 -0 1)
(-0.555888 -0.831257 0)
(0 0 -1)
(-0.555888 -0.831257 0)
(0 -0 1)
(-0.471341 -0.881951 0)
(0 0 -1)
(-0.471341 -0.881951 0)
(0 -0 1)
(-0.383213 -0.92366 0)
(0 0 -1)
(-0.383213 -0.92366 0)
(0 -0 1)
(-0.290793 -0.956786 0)
(0 0 -1)
(-0.290793 -0.956786 0)
(0 -0 1)
(-0.195909 -0.980622 0)
(0 0 -1)
(-0.195909 -0.980622 0)
(0 -0 1)
(-0.0988677 -0.995101 0)
(0 0 -1)
(-0.0988677 -0.995101 0)
(0 -0 1)
(0 0 -1)
(0.999317 -0.0369606 0)
(0 0 -1)
(-0.347898 0.937532 0)
(-0 0 -1)
(0.9826 -0.185736 0)
(0 0 -1)
(0.934171 -0.356825 0)
(0 0 -1)
(0.869423 -0.494069 0)
(0 0 -1)
(-0.192534 0.98129 0)
(0 0 -1)
(-0.0308536 0.999524 0)
(0 0 -1)
(0.3959 -0.918293 0)
(-0 0 -1)
(0.239639 -0.970862 0)
(0 0 -1)
(0.0799857 -0.996796 0)
(0 0 -1)
(-0.0842333 -0.996446 0)
(-0 0 -1)
(0.783307 -0.621635 0)
(0 0 -1)
(0.662157 -0.749365 0)
(0 0 -1)
(0.538823 -0.842419 0)
(0 0 -1)
(-0.552794 -0.833318 0)
(-0.689695 -0.7241 0)
(0 0 -1)
(-0.803927 -0.594727 0)
(0 0 -1)
(-0.887751 -0.460323 0)
(0 0 -1)
(-0.249172 -0.968459 0)
(0 0 -1)
(-0.414368 -0.91011 0)
(0 0 -1)
(-0.99145 -0.13049 0)
(0 0 -1)
(-0.955013 -0.296564 0)
(0 0 -1)
(-0.971999 0.234984 0)
(0 0 -1)
(-0.918652 0.395067 0)
(0 0 -1)
(-0.840655 0.54157 0)
(0 0 -1)
(-0.744942 0.667129 0)
(0 0 -1)
(-0.628435 0.777862 0)
(0 0 -1)
(-0.496133 0.868247 0)
(0 -0 -1)
(-0.996252 0.0864929 0)
(0 0 -1)
(-0.134886 -0.990861 0)
(0 0 -1)
(-0.29709 -0.954849 0)
(0 0 -1)
(-0.45571 -0.890128 0)
(-0.596233 -0.802812 0)
(0 0 -1)
(-0.725859 -0.687844 0)
(0 0 -1)
(-0.830197 -0.55747 0)
(0 0 -1)
(-0.914796 -0.403917 0)
(0 0 -1)
(-0.965587 -0.260082 0)
(0 0 -1)
(-0.996556 -0.0829198 0)
(0 0 1)
(-0.192534 0.98129 0)
(0 -0 1)
(-0.0308536 0.999524 0)
(0 -0 1)
(0.934171 -0.356825 0)
(0 -0 1)
(0.0799857 -0.996796 0)
(0 -0 1)
(0.9826 -0.185736 0)
(-0 0 1)
(0.999317 -0.0369606 0)
(0 0 1)
(-0.0842333 -0.996446 0)
(0 0 1)
(-0.347898 0.937532 0)
(0 0 1)
(-0.496133 0.868247 0)
(0 0 1)
(-0.628435 0.777862 0)
(0 0 1)
(-0.744942 0.667129 0)
(0 0 1)
(-0.840655 0.54157 0)
(0 0 1)
(-0.918652 0.395067 0)
(0 0 1)
(-0.971999 0.234984 0)
(0 0 1)
(-0.996252 0.0864929 0)
(0 0 1)
(-0.134886 -0.990861 0)
(0 0 1)
(-0.955013 -0.296564 0)
(0 -0 1)
(0.239639 -0.970862 0)
(0 0 1)
(0.3959 -0.918293 0)
(0 0 1)
(0.538823 -0.842419 0)
(0 0 1)
(-0.914796 -0.403917 0)
(-0 -0 1)
(-0.99145 -0.13049 0)
(0 0 1)
(-0.414368 -0.91011 0)
(0 0 1)
(-0.249172 -0.968459 0)
(0 -0 1)
(0.662157 -0.749365 0)
(0 0 1)
(0.783307 -0.621635 0)
(0 0 1)
(0.869423 -0.494069 0)
(0 0 1)
(-0.887751 -0.460323 0)
(0 0 1)
(-0.803927 -0.594727 0)
(0 0 1)
(-0.552794 -0.833318 0)
(-0.689695 -0.7241 0)
(0 0 1)
(-0.29709 -0.954849 0)
(0 0 1)
(-0.996556 -0.0829198 0)
(0 0 1)
(-0.965587 -0.260082 0)
(0 0 1)
(-0.830197 -0.55747 0)
(0 0 1)
(-0.725859 -0.687844 0)
(0 0 1)
(-0.45571 -0.890128 0)
(-0.596233 -0.802812 0)
)

// normal volume types

272
(
0
0
0
0
0
0
0
0
0
0
0
0
0
0
0
0
0
0
0
0
0
0
0
0
0
0
0
0
0
0
0
0
0
0
0
0
0
0
0
0
0
0
0
0
0
0
0
0
0
0
0
0
0
0
0
0
0
0
0
0
0
0
0
0
0
0
0
0
0
0
0
0
0
0
0
0
0
0
0
0
0
0
0
0
0
0
0
0
0
0
0
0
0
0
0
0
0
0
0
0
0
0
0
0
0
0
0
0
0
0
0
0
0
0
0
0
0
0
0
0
0
0
0
0
0
0
0
0
0
0
0
0
0
0
0
0
0
0
0
0
0
0
0
0
0
0
0
0
0
0
0
0
0
0
0
0
0
0
0
0
0
0
0
0
0
0
0
0
0
0
0
0
0
0
0
0
0
0
0
0
0
0
0
0
0
0
0
0
0
0
0
0
0
0
0
0
0
0
0
0
0
0
0
0
0
0
0
0
0
0
0
0
0
0
0
0
0
0
0
0
0
0
0
0
0
0
0
0
0
0
0
0
0
0
0
0
0
0
0
0
0
0
0
0
0
0
0
0
0
0
0
0
0
0
0
0
0
0
0
0
0
0
0
0
0
0
0
0
0
0
0
0
)

// normalDirections

145
(
2(1 -1)
2(1 -1)
2(1 -1)
2(1 -1)
2(1 -1)
2(1 -1)
2(1 -1)
2(1 -1)
2(1 -1)
2(1 -1)
2(1 -1)
2(1 -1)
2(1 -1)
2(1 -1)
2(1 -1)
2(1 -1)
2(1 -1)
2(1 -1)
2(1 -1)
2(1 -1)
2(1 -1)
2(1 -1)
2(1 -1)
2(1 -1)
2(1 -1)
2(1 -1)
2(1 -1)
2(1 -1)
2(1 -1)
2(1 -1)
2(1 -1)
2(1 -1)
2(1 -1)
2(1 -1)
2(1 -1)
2(1 -1)
2(1 -1)
2(1 -1)
2(1 -1)
2(1 -1)
2(1 -1)
2(1 -1)
2(1 -1)
2(1 -1)
2(1 -1)
2(1 -1)
2(1 -1)
2(1 -1)
2(1 -1)
2(1 -1)
2(1 -1)
2(1 -1)
2(1 -1)
2(1 -1)
2(1 -1)
2(1 -1)
2(1 -1)
2(1 -1)
2(1 -1)
2(1 -1)
2(1 -1)
2(1 -1)
2(1 -1)
2(1 -1)
2(1 -1)
2(1 -1)
2(1 -1)
2(1 -1)
2(1 -1)
2(1 -1)
2(1 -1)
2(1 -1)
2(1 -1)
2(1 -1)
2(1 -1)
2(1 -1)
2(1 -1)
2(1 -1)
2(1 -1)
2(1 -1)
2(1 -1)
2(1 -1)
2(1 -1)
2(1 -1)
2(1 -1)
2(1 -1)
2(1 -1)
2(1 -1)
2(1 -1)
2(1 -1)
2(1 -1)
2(1 -1)
2(1 -1)
2(1 -1)
2(1 -1)
2(1 -1)
2(1 -1)
2(1 -1)
2(1 -1)
2(1 -1)
2(1 -1)
2(1 -1)
2(1 -1)
2(1 -1)
2(1 -1)
2(1 -1)
2(1 -1)
2(1 -1)
2(1 -1)
2(1 -1)
2(1 -1)
2(1 -1)
2(1 -1)
2(1 -1)
2(1 -1)
2(1 -1)
2(1 -1)
2(1 -1)
2(1 -1)
2(1 -1)
2(1 -1)
2(1 -1)
2(1 -1)
2(1 -1)
2(1 -1)
2(1 -1)
2(1 -1)
2(1 -1)
2(1 -1)
2(1 -1)
2(1 -1)
2(1 -1)
2(1 -1)
2(1 -1)
2(1 -1)
2(1 -1)
2(1 -1)
2(1 -1)
2(1 -1)
2(1 -1)
2(1 -1)
2(1 -1)
2(1 -1)
2(1 -1)
2(1 -1)
)

// edgeNormals

145
(
2(0 1)
2(2 3)
2(4 5)
2(6 7)
2(8 9)
2(10 11)
2(12 13)
2(14 15)
2(16 17)
2(18 19)
2(20 21)
2(22 23)
2(24 25)
2(26 27)
2(28 29)
2(30 31)
2(32 33)
2(34 35)
2(36 37)
2(38 39)
2(40 41)
2(42 43)
2(44 45)
2(46 47)
2(48 49)
2(50 51)
2(52 53)
2(54 55)
2(56 57)
2(58 59)
2(60 61)
2(62 63)
2(64 65)
2(66 67)
2(68 69)
2(70 71)
2(72 73)
2(74 75)
2(76 77)
2(78 79)
2(80 81)
2(82 83)
2(84 85)
2(86 87)
2(88 89)
2(90 91)
2(92 93)
2(94 95)
2(96 97)
2(98 99)
2(100 101)
2(102 103)
2(104 105)
2(106 107)
2(108 109)
2(110 111)
2(112 113)
2(114 115)
2(116 117)
2(118 119)
2(120 121)
2(122 123)
2(124 125)
2(126 127)
2(128 129)
2(130 131)
2(132 133)
2(134 135)
2(136 137)
2(138 139)
2(140 141)
2(142 143)
2(144 145)
2(146 147)
2(148 149)
2(150 151)
2(152 153)
2(152 154)
2(155 156)
2(157 158)
2(159 160)
2(161 162)
2(163 164)
2(165 166)
2(167 168)
2(169 170)
2(171 172)
2(173 174)
2(175 176)
2(177 178)
2(179 180)
2(181 182)
2(183 184)
2(185 186)
2(185 187)
2(188 189)
2(190 191)
2(192 193)
2(194 195)
2(196 197)
2(198 199)
2(200 201)
2(202 203)
2(204 205)
2(206 207)
2(208 209)
2(210 211)
2(212 213)
2(214 215)
2(216 217)
2(218 219)
2(220 221)
2(222 223)
2(224 225)
2(226 227)
2(228 229)
2(230 231)
2(232 233)
2(234 235)
2(236 237)
2(238 239)
2(240 241)
2(242 243)
2(244 245)
2(246 247)
2(248 249)
2(250 251)
2(252 253)
2(254 255)
2(256 257)
2(256 258)
2(259 260)
2(261 262)
2(263 264)
2(265 266)
2(267 268)
2(269 270)
2(269 271)
2(129 203)
2(147 247)
2(160 243)
2(153 258)
2(158 231)
2(191 239)
2(195 262)
)

// featurePointNormals

14
(
3(128 129 131)
3(146 147 149)
3(152 153 154)
3(157 158 166)
3(159 160 162)
3(190 191 193)
3(194 195 197)
3(202 203 207)
3(230 231 253)
3(238 239 266)
3(242 243 245)
3(246 247 249)
3(256 257 258)
3(261 262 264)
)

// featurePointEdges

14
(
3(65 138 64)
3(74 139 73)
3(76 141 77)
3(83 142 79)
3(81 140 80)
3(97 143 96)
3(99 144 98)
3(104 138 102)
3(127 142 116)
3(134 143 120)
3(123 140 122)
3(125 139 124)
3(129 141 130)
3(133 144 132)
)

// regionEdges
0()


// ************************************************************************* //
