/*--------------------------------*- C++ -*----------------------------------*\
| =========                 |                                                 |
| \\      /  F ield         | OpenFOAM: The Open Source CFD Toolbox           |
|  \\    /   O peration     | Version:  v1912                                 |
|   \\  /    A nd           | Website:  www.openfoam.com                      |
|    \\/     M anipulation  |                                                 |
\*---------------------------------------------------------------------------*/
FoamFile
{
    version     2.0;
    format      ascii;
    class       polyBoundaryMesh;
    location    "constant/polyMesh";
    object      boundary;
}
// * * * * * * * * * * * * * * * * * * * * * * * * * * * * * * * * * * * * * //

9
(
    inlet
    {
        type            inlet;
        nFaces          0;
        startFace       7191;
        faces           ( ( 0 4 7 3 ) );
    }
    outlet
    {
        type            outlet;
        nFaces          55;
        startFace       7191;
        faces           ( ( 2 6 5 1 ) );
    }
    wall
    {
        type            wall;
        inGroups        1(wall);
        nFaces          48;
        startFace       7246;
    }
    front
    {
        type            empty;
        inGroups        1(empty);
        nFaces          3673;
        startFace       7294;
    }
    back
    {
        type            empty;
        inGroups        1(empty);
        nFaces          3673;
        startFace       10967;
    }
    vanem
    {
        type            wall;
        inGroups        1(wall);
        nFaces          194;
        startFace       14640;
    }
    vaneu
    {
        type            wall;
        inGroups        1(wall);
        nFaces          388;
        startFace       14834;
    }
    vanel
    {
        type            wall;
        inGroups        1(wall);
        nFaces          0;
        startFace       15222;
    }
    procBoundary3to2
    {
        type            processor;
        inGroups        1(processor);
        nFaces          57;
        startFace       15222;
        matchTolerance  0.0001;
        transform       unknown;
        myProcNo        3;
        neighbProcNo    2;
    }
)

// ************************************************************************* //
