/*--------------------------------*- C++ -*----------------------------------*\
| =========                 |                                                 |
| \\      /  F ield         | OpenFOAM: The Open Source CFD Toolbox           |
|  \\    /   O peration     | Version:  v1912                                 |
|   \\  /    A nd           | Website:  www.openfoam.com                      |
|    \\/     M anipulation  |                                                 |
\*---------------------------------------------------------------------------*/
FoamFile
{
    version     2.0;
    format      ascii;
    class       polyBoundaryMesh;
    location    "constant/polyMesh";
    object      boundary;
}
// * * * * * * * * * * * * * * * * * * * * * * * * * * * * * * * * * * * * * //

11
(
    inlet1
    {
        type            inlet;
        nFaces          0;
        startFace       11669;
        faces           ( ( 0 4 7 3 ) );
    }
    outlet1
    {
        type            outlet;
        nFaces          0;
        startFace       11669;
        faces           ( ( 1 5 6 2 ) );
    }
    front
    {
        type            empty;
        inGroups        1(empty);
        nFaces          5936;
        startFace       11669;
    }
    back
    {
        type            empty;
        inGroups        1(empty);
        nFaces          5936;
        startFace       17605;
    }
    tbwall
    {
        type            wall;
        inGroups        1(wall);
        nFaces          484;
        startFace       23541;
    }
    inlet
    {
        type            inlet;
        nFaces          0;
        startFace       24025;
        faces           ( ( 0 4 7 3 ) );
    }
    outlet
    {
        type            outlet;
        nFaces          38;
        startFace       24025;
        faces           ( ( 0 1 5 4 ) );
    }
    twalls
    {
        type            wall;
        inGroups        1(wall);
        nFaces          286;
        startFace       24063;
    }
    procBoundary0to1
    {
        type            processor;
        inGroups        1(processor);
        nFaces          89;
        startFace       24349;
        matchTolerance  0.0001;
        transform       unknown;
        myProcNo        0;
        neighbProcNo    1;
    }
    procBoundary0to3
    {
        type            processor;
        inGroups        1(processor);
        nFaces          82;
        startFace       24438;
        matchTolerance  0.0001;
        transform       unknown;
        myProcNo        0;
        neighbProcNo    3;
    }
    procBoundary0to2
    {
        type            processor;
        inGroups        1(processor);
        nFaces          25;
        startFace       24520;
        matchTolerance  0.0001;
        transform       unknown;
        myProcNo        0;
        neighbProcNo    2;
    }
)

// ************************************************************************* //
