/*--------------------------------*- C++ -*----------------------------------*\
| =========                 |                                                 |
| \\      /  F ield         | OpenFOAM: The Open Source CFD Toolbox           |
|  \\    /   O peration     | Version:  v1912                                 |
|   \\  /    A nd           | Website:  www.openfoam.com                      |
|    \\/     M anipulation  |                                                 |
\*---------------------------------------------------------------------------*/
FoamFile
{
    version     2.0;
    format      ascii;
    class       featureEdgeMesh;
    location    "constant/triSurface";
    object      vane17.eMesh;
}
// * * * * * * * * * * * * * * * * * * * * * * * * * * * * * * * * * * * * * //


// points:

138
(
(1.9947 0.298639 -1)
(1.99351 0.296546 -1)
(1.98675 0.296092 -1)
(1.98525 0.298101 -1)
(1.98822 0.295275 -1)
(1.89062 0.392455 -1)
(1.89006 0.394042 -1)
(1.9947 0.298639 1)
(1.98525 0.298101 1)
(1.89062 0.392455 1)
(1.98822 0.295275 1)
(1.99351 0.296546 1)
(1.98675 0.296092 1)
(1.89006 0.394042 1)
(1.89524 0.399876 1)
(1.90485 0.398952 1)
(1.90485 0.398952 -1)
(1.89524 0.399876 -1)
(1.91433 0.397149 1)
(1.91433 0.397149 -1)
(1.9236 0.394484 1)
(1.9236 0.394484 -1)
(1.93259 0.390979 1)
(1.93259 0.390979 -1)
(1.94122 0.386663 1)
(1.94122 0.386663 -1)
(1.94942 0.381573 1)
(1.94942 0.381573 -1)
(1.95712 0.375752 1)
(1.95712 0.375752 -1)
(1.96425 0.369249 1)
(1.96425 0.369249 -1)
(1.97075 0.36212 1)
(1.97075 0.36212 -1)
(1.97657 0.354423 1)
(1.97657 0.354423 -1)
(1.98166 0.346224 1)
(1.98166 0.346224 -1)
(1.98598 0.337593 1)
(1.98598 0.337593 -1)
(1.98948 0.328602 1)
(1.98948 0.328602 -1)
(1.99215 0.319328 1)
(1.99215 0.319328 -1)
(1.99395 0.309848 1)
(1.99395 0.309848 -1)
(1.99488 0.300242 1)
(1.99488 0.300242 -1)
(1.98397 0.30901 -1)
(1.98489 0.299742 -1)
(1.98489 0.299742 1)
(1.98397 0.30901 1)
(1.98214 0.318142 -1)
(1.98214 0.318142 1)
(1.97944 0.327052 -1)
(1.97944 0.327052 1)
(1.97587 0.335654 -1)
(1.97587 0.335654 1)
(1.97147 0.343865 -1)
(1.97147 0.343865 1)
(1.9663 0.351607 -1)
(1.9663 0.351607 1)
(1.96039 0.358805 -1)
(1.96039 0.358805 1)
(1.95381 0.36539 -1)
(1.95381 0.36539 1)
(1.94661 0.371299 -1)
(1.94661 0.371299 1)
(1.93887 0.376475 -1)
(1.93887 0.376475 1)
(1.93065 0.380868 -1)
(1.93065 0.380868 1)
(1.92205 0.384436 -1)
(1.92205 0.384436 1)
(1.91314 0.387144 -1)
(1.91314 0.387144 1)
(1.90401 0.388968 -1)
(1.90401 0.388968 1)
(1.89474 0.389889 -1)
(1.89474 0.389889 1)
(1.99485 0.299433 -1)
(1.89288 0.399414 -1)
(1.89364 0.399696 -1)
(1.99441 0.29788 -1)
(1.99401 0.297176 -1)
(1.89443 0.399851 -1)
(1.99222 0.295572 -1)
(1.99148 0.295253 -1)
(1.99069 0.295058 -1)
(1.98988 0.294993 -1)
(1.98904 0.295064 -1)
(1.9929 0.296007 -1)
(1.98746 0.295621 -1)
(1.98614 0.296673 -1)
(1.98564 0.297349 -1)
(1.985 0.298906 -1)
(1.89006 0.395689 -1)
(1.89025 0.396475 -1)
(1.89057 0.397219 -1)
(1.89101 0.397902 -1)
(1.89155 0.398505 -1)
(1.89218 0.399014 -1)
(1.88999 0.394883 -1)
(1.89391 0.390002 -1)
(1.8931 0.390254 -1)
(1.89235 0.390638 -1)
(1.89167 0.391143 -1)
(1.89109 0.391755 -1)
(1.89028 0.393225 -1)
(1.89443 0.399851 1)
(1.89364 0.399696 1)
(1.99441 0.29788 1)
(1.98988 0.294993 1)
(1.99069 0.295058 1)
(1.99485 0.299433 1)
(1.98904 0.295064 1)
(1.89288 0.399414 1)
(1.89218 0.399014 1)
(1.89155 0.398505 1)
(1.89101 0.397902 1)
(1.89057 0.397219 1)
(1.89025 0.396475 1)
(1.89006 0.395689 1)
(1.88999 0.394883 1)
(1.89391 0.390002 1)
(1.985 0.298906 1)
(1.99148 0.295253 1)
(1.99222 0.295572 1)
(1.9929 0.296007 1)
(1.89028 0.393225 1)
(1.98746 0.295621 1)
(1.99401 0.297176 1)
(1.98564 0.297349 1)
(1.98614 0.296673 1)
(1.8931 0.390254 1)
(1.89109 0.391755 1)
(1.89167 0.391143 1)
(1.89235 0.390638 1)
)


// edges:

145
(
(14 15)
(16 17)
(15 18)
(19 16)
(18 20)
(21 19)
(20 22)
(23 21)
(22 24)
(25 23)
(24 26)
(27 25)
(26 28)
(29 27)
(28 30)
(31 29)
(30 32)
(33 31)
(32 34)
(35 33)
(34 36)
(37 35)
(36 38)
(39 37)
(38 40)
(41 39)
(40 42)
(43 41)
(42 44)
(45 43)
(44 46)
(47 45)
(48 49)
(50 51)
(52 48)
(51 53)
(54 52)
(53 55)
(56 54)
(55 57)
(58 56)
(57 59)
(60 58)
(59 61)
(62 60)
(61 63)
(64 62)
(63 65)
(66 64)
(65 67)
(68 66)
(67 69)
(70 68)
(69 71)
(72 70)
(71 73)
(74 72)
(73 75)
(76 74)
(75 77)
(78 76)
(77 79)
(47 80)
(81 82)
(80 0)
(0 83)
(83 84)
(82 85)
(85 17)
(86 87)
(87 88)
(88 89)
(89 90)
(84 1)
(1 91)
(91 86)
(92 2)
(2 93)
(93 94)
(94 3)
(90 4)
(4 92)
(95 49)
(3 95)
(96 97)
(97 98)
(98 99)
(99 100)
(100 101)
(101 81)
(102 96)
(78 103)
(103 104)
(104 105)
(105 106)
(106 107)
(107 5)
(5 108)
(108 6)
(6 102)
(109 110)
(14 109)
(111 7)
(112 113)
(7 114)
(114 46)
(115 112)
(110 116)
(116 117)
(117 118)
(118 119)
(119 120)
(120 121)
(121 122)
(122 123)
(124 79)
(125 8)
(113 126)
(126 127)
(127 128)
(129 9)
(50 125)
(130 10)
(10 115)
(128 11)
(11 131)
(131 111)
(8 132)
(132 133)
(12 130)
(133 12)
(134 124)
(123 13)
(13 129)
(9 135)
(135 136)
(137 134)
(136 137)
(7 0)
(11 1)
(10 4)
(12 2)
(8 3)
(9 5)
(13 6)
)

// * * * * * * * * * * * * * * * * * * * * * * * * * * * * * * * * * * * * * //


// ************************************************************************* //
