/*--------------------------------*- C++ -*----------------------------------*\
| =========                 |                                                 |
| \\      /  F ield         | OpenFOAM: The Open Source CFD Toolbox           |
|  \\    /   O peration     | Version:  v1912                                 |
|   \\  /    A nd           | Website:  www.openfoam.com                      |
|    \\/     M anipulation  |                                                 |
\*---------------------------------------------------------------------------*/
FoamFile
{
    version     2.0;
    format      ascii;
    class       polyBoundaryMesh;
    location    "constant/polyMesh";
    object      boundary;
}
// * * * * * * * * * * * * * * * * * * * * * * * * * * * * * * * * * * * * * //

10
(
    inlet1
    {
        type            inlet;
        nFaces          54;
        startFace       11146;
        faces           ( ( 0 4 7 3 ) );
    }
    outlet1
    {
        type            outlet;
        nFaces          0;
        startFace       11200;
        faces           ( ( 1 5 6 2 ) );
    }
    front
    {
        type            empty;
        inGroups        1(empty);
        nFaces          5672;
        startFace       11200;
    }
    back
    {
        type            empty;
        inGroups        1(empty);
        nFaces          5672;
        startFace       16872;
    }
    tbwall
    {
        type            wall;
        inGroups        1(wall);
        nFaces          508;
        startFace       22544;
    }
    inlet
    {
        type            inlet;
        nFaces          27;
        startFace       23052;
        faces           ( ( 0 4 7 3 ) );
    }
    outlet
    {
        type            outlet;
        nFaces          15;
        startFace       23079;
        faces           ( ( 0 1 5 4 ) );
    }
    twalls
    {
        type            wall;
        inGroups        1(wall);
        nFaces          275;
        startFace       23094;
    }
    procBoundary1to0
    {
        type            processor;
        inGroups        1(processor);
        nFaces          89;
        startFace       23369;
        matchTolerance  0.0001;
        transform       unknown;
        myProcNo        1;
        neighbProcNo    0;
    }
    procBoundary1to2
    {
        type            processor;
        inGroups        1(processor);
        nFaces          19;
        startFace       23458;
        matchTolerance  0.0001;
        transform       unknown;
        myProcNo        1;
        neighbProcNo    2;
    }
)

// ************************************************************************* //
