/*--------------------------------*- C++ -*----------------------------------*\
| =========                 |                                                 |
| \\      /  F ield         | OpenFOAM: The Open Source CFD Toolbox           |
|  \\    /   O peration     | Version:  v1912                                 |
|   \\  /    A nd           | Website:  www.openfoam.com                      |
|    \\/     M anipulation  |                                                 |
\*---------------------------------------------------------------------------*/
FoamFile
{
    version     2.0;
    format      ascii;
    class       polyBoundaryMesh;
    location    "constant/polyMesh";
    object      boundary;
}
// * * * * * * * * * * * * * * * * * * * * * * * * * * * * * * * * * * * * * //

10
(
    inlet
    {
        type            inlet;
        nFaces          50;
        startFace       7352;
        faces           ( ( 0 4 7 3 ) );
    }
    outlet
    {
        type            outlet;
        nFaces          0;
        startFace       7402;
        faces           ( ( 2 6 5 1 ) );
    }
    wall
    {
        type            wall;
        inGroups        1(wall);
        nFaces          51;
        startFace       7402;
    }
    front
    {
        type            empty;
        inGroups        1(empty);
        nFaces          3753;
        startFace       7453;
    }
    back
    {
        type            empty;
        inGroups        1(empty);
        nFaces          3753;
        startFace       11206;
    }
    vanem
    {
        type            wall;
        inGroups        1(wall);
        nFaces          198;
        startFace       14959;
    }
    vaneu
    {
        type            wall;
        inGroups        1(wall);
        nFaces          0;
        startFace       15157;
    }
    vanel
    {
        type            wall;
        inGroups        1(wall);
        nFaces          400;
        startFace       15157;
    }
    procBoundary0to1
    {
        type            processor;
        inGroups        1(processor);
        nFaces          57;
        startFace       15557;
        matchTolerance  0.0001;
        transform       unknown;
        myProcNo        0;
        neighbProcNo    1;
    }
    procBoundary0to2
    {
        type            processor;
        inGroups        1(processor);
        nFaces          5;
        startFace       15614;
        matchTolerance  0.0001;
        transform       unknown;
        myProcNo        0;
        neighbProcNo    2;
    }
)

// ************************************************************************* //
