/*--------------------------------*- C++ -*----------------------------------*\
| =========                 |                                                 |
| \\      /  F ield         | OpenFOAM: The Open Source CFD Toolbox           |
|  \\    /   O peration     | Version:  v1912                                 |
|   \\  /    A nd           | Website:  www.openfoam.com                      |
|    \\/     M anipulation  |                                                 |
\*---------------------------------------------------------------------------*/
FoamFile
{
    version     2.0;
    format      ascii;
    class       polyBoundaryMesh;
    location    "constant/polyMesh";
    object      boundary;
}
// * * * * * * * * * * * * * * * * * * * * * * * * * * * * * * * * * * * * * //

10
(
    inlet
    {
        type            inlet;
        nFaces          80;
        startFace       40534;
        faces           ( ( 0 4 7 3 ) );
    }
    outlet
    {
        type            outlet;
        nFaces          80;
        startFace       40614;
        faces           ( ( 10 14 13 9 ) );
    }
    wall
    {
        type            wall;
        inGroups        1(wall);
        nFaces          318;
        startFace       40694;
    }
    front
    {
        type            empty;
        inGroups        1(empty);
        nFaces          20431;
        startFace       41012;
    }
    back
    {
        type            empty;
        inGroups        1(empty);
        nFaces          20431;
        startFace       61443;
    }
    vane1
    {
        type            wall;
        inGroups        1(wall);
        nFaces          575;
        startFace       81874;
    }
    vane2
    {
        type            wall;
        inGroups        1(wall);
        nFaces          564;
        startFace       82449;
    }
    vane3
    {
        type            wall;
        inGroups        1(wall);
        nFaces          550;
        startFace       83013;
    }
    vane4
    {
        type            wall;
        inGroups        1(wall);
        nFaces          549;
        startFace       83563;
    }
    vane5
    {
        type            wall;
        inGroups        1(wall);
        nFaces          551;
        startFace       84112;
    }
)

// ************************************************************************* //
