/*--------------------------------*- C++ -*----------------------------------*\
| =========                 |                                                 |
| \\      /  F ield         | OpenFOAM: The Open Source CFD Toolbox           |
|  \\    /   O peration     | Version:  v1912                                 |
|   \\  /    A nd           | Website:  www.openfoam.com                      |
|    \\/     M anipulation  |                                                 |
\*---------------------------------------------------------------------------*/
FoamFile
{
    version     2.0;
    format      ascii;
    class       polyBoundaryMesh;
    location    "constant/polyMesh";
    object      boundary;
}
// * * * * * * * * * * * * * * * * * * * * * * * * * * * * * * * * * * * * * //

5
(
    inlet
    {
        type            inlet;
        nFaces          181;
        startFace       65160;
        faces           ( ( 0 4 7 3 ) );
    }
    outlet
    {
        type            outlet;
        nFaces          181;
        startFace       65341;
        faces           ( ( 0 1 5 4 ) );
    }
    front
    {
        type            empty;
        inGroups        1(empty);
        nFaces          32761;
        startFace       65522;
    }
    back
    {
        type            empty;
        inGroups        1(empty);
        nFaces          32761;
        startFace       98283;
    }
    defaultFaces
    {
        type            empty;
        inGroups        1(empty);
        nFaces          362;
        startFace       131044;
    }
)

// ************************************************************************* //
