/*--------------------------------*- C++ -*----------------------------------*\
| =========                 |                                                 |
| \\      /  F ield         | OpenFOAM: The Open Source CFD Toolbox           |
|  \\    /   O peration     | Version:  v1912                                 |
|   \\  /    A nd           | Website:  www.openfoam.com                      |
|    \\/     M anipulation  |                                                 |
\*---------------------------------------------------------------------------*/
FoamFile
{
    version     2.0;
    format      ascii;
    class       featureEdgeMesh;
    location    "constant/triSurface";
    object      single_vanel.eMesh;
}
// * * * * * * * * * * * * * * * * * * * * * * * * * * * * * * * * * * * * * //


// points:

76
(
(0.01740610041 -0.04179010168 1)
(0.01740610041 -0.04179010168 -1)
(0.01691929996 -0.04148359969 1)
(0.01691929996 -0.04148359969 -1)
(0.01614060067 -0.04064270109 1)
(0.01614060067 -0.04064270109 -1)
(0.0156964995 -0.03958610073 1)
(0.0156964995 -0.03958610073 -1)
(0.01561839972 -0.03901619837 1)
(0.01561839972 -0.03901619837 -1)
(0.01564049907 -0.03844140097 1)
(0.01564049907 -0.03844140097 -1)
(0.01628590003 -0.03685979918 1)
(0.01628590003 -0.03685979918 -1)
(0.01667230017 -0.03643370047 1)
(0.01667230017 -0.03643370047 -1)
(0.01818340085 -0.03563699871 1)
(0.01818340085 -0.03563699871 -1)
(0.01932810061 -0.03558100015 1)
(0.01932810061 -0.03558100015 -1)
(0.5458260179 -0.1985590011 1)
(0.5458260179 -0.1985590011 -1)
(0.5467389822 -0.1992519945 1)
(0.5467389822 -0.1992519945 -1)
(0.547360003 -0.2002159953 1)
(0.547360003 -0.2002159953 -1)
(0.5475360155 -0.200763002 1)
(0.5475360155 -0.200763002 -1)
(0.5475919843 -0.2019080073 1)
(0.5475919843 -0.2019080073 -1)
(0.5472530127 -0.2030030042 1)
(0.5472530127 -0.2030030042 -1)
(0.5465599895 -0.2039159983 1)
(0.5465599895 -0.2039159983 -1)
(0.5455960035 -0.2045370042 1)
(0.5455960035 -0.2045370042 -1)
(0.5444790125 -0.2047909945 1)
(0.5444790125 -0.2047909945 -1)
(0.01793869957 -0.04200740159 1)
(0.01793869957 -0.04200740159 -1)
(0.01649319939 -0.04109720141 1)
(0.01649319939 -0.04109720141 -1)
(0.01587240025 -0.04013380036 1)
(0.01587240025 -0.04013380036 -1)
(0.0157621 -0.03787919879 1)
(0.0157621 -0.03787919879 -1)
(0.0159793999 -0.03734660149 1)
(0.0159793999 -0.03734660149 -1)
(0.01712689921 -0.0360811986 1)
(0.01712689921 -0.0360811986 -1)
(0.01763569936 -0.03581289947 1)
(0.01763569936 -0.03581289947 -1)
(0.01875329949 -0.03555899858 1)
(0.01875329949 -0.03555899858 -1)
(0.01989030093 -0.03570260108 1)
(0.01989030093 -0.03570260108 -1)
(0.5452929735 -0.1983419955 1)
(0.5452929735 -0.1983419955 -1)
(0.5463129878 -0.1988659948 1)
(0.5463129878 -0.1988659948 -1)
(0.5470910072 -0.1997070014 1)
(0.5470910072 -0.1997070014 -1)
(0.5476139784 -0.2013330013 1)
(0.5476139784 -0.2013330013 -1)
(0.5474699736 -0.2024700046 1)
(0.5474699736 -0.2024700046 -1)
(0.5469459891 -0.2034900039 1)
(0.5469459891 -0.2034900039 -1)
(0.5461050272 -0.2042679936 1)
(0.5461050272 -0.2042679936 -1)
(0.5450490117 -0.2047120035 1)
(0.5450490117 -0.2047120035 -1)
(0.5439040065 -0.204768002 1)
(0.5439040065 -0.204768002 -1)
(0.5433419943 -0.2046470046 1)
(0.5433419943 -0.2046470046 -1)
)


// edges:

95
(
(38 0)
(0 1)
(1 39)
(0 2)
(2 3)
(3 1)
(2 40)
(41 3)
(40 4)
(4 5)
(5 41)
(4 42)
(43 5)
(42 6)
(6 7)
(7 43)
(6 8)
(8 9)
(9 7)
(8 10)
(10 11)
(11 9)
(10 44)
(45 11)
(44 46)
(47 45)
(46 12)
(12 13)
(13 47)
(12 14)
(14 15)
(15 13)
(14 48)
(49 15)
(48 50)
(51 49)
(50 16)
(16 17)
(17 51)
(16 52)
(53 17)
(52 18)
(18 19)
(19 53)
(18 54)
(55 19)
(54 56)
(57 55)
(56 20)
(20 21)
(21 57)
(20 58)
(59 21)
(58 22)
(22 23)
(23 59)
(22 60)
(61 23)
(60 24)
(24 25)
(25 61)
(24 26)
(26 27)
(27 25)
(26 62)
(63 27)
(62 28)
(28 29)
(29 63)
(28 64)
(65 29)
(64 30)
(30 31)
(31 65)
(30 66)
(67 31)
(66 32)
(32 33)
(33 67)
(32 68)
(69 33)
(68 34)
(34 35)
(35 69)
(34 70)
(71 35)
(70 36)
(36 37)
(37 71)
(36 72)
(73 37)
(72 74)
(75 73)
(74 38)
(39 75)
)

// * * * * * * * * * * * * * * * * * * * * * * * * * * * * * * * * * * * * * //


// ************************************************************************* //
