/*--------------------------------*- C++ -*----------------------------------*\
| =========                 |                                                 |
| \\      /  F ield         | OpenFOAM: The Open Source CFD Toolbox           |
|  \\    /   O peration     | Version:  v1912                                 |
|   \\  /    A nd           | Website:  www.openfoam.com                      |
|    \\/     M anipulation  |                                                 |
\*---------------------------------------------------------------------------*/
FoamFile
{
    version     2.0;
    format      ascii;
    class       featureEdgeMesh;
    location    "constant/triSurface";
    object      single_vanem.eMesh;
}
// * * * * * * * * * * * * * * * * * * * * * * * * * * * * * * * * * * * * * //


// points:

76
(
(0.01867130026 -0.003100990085 1)
(0.01867130026 -0.003100990085 -1)
(0.01767879911 -0.002527950099 1)
(0.01767879911 -0.002527950099 -1)
(0.0169421006 -0.001649999991 1)
(0.0169421006 -0.001649999991 -1)
(0.01655009948 -0.0005730389967 1)
(0.01655009948 -0.0005730389967 -1)
(0.01655009948 0.0005730389967 1)
(0.01655009948 0.0005730389967 -1)
(0.0169421006 0.001649999991 1)
(0.0169421006 0.001649999991 -1)
(0.01767879911 0.002527950099 1)
(0.01767879911 0.002527950099 -1)
(0.01867130026 0.003100990085 1)
(0.01867130026 0.003100990085 -1)
(0.5709289908 0.003100990085 1)
(0.5709289908 0.003100990085 -1)
(0.5723279715 0.002121200087 1)
(0.5723279715 0.002121200087 -1)
(0.5726580024 0.001649999991 1)
(0.5726580024 0.001649999991 -1)
(0.5730500221 0.0005730389967 1)
(0.5730500221 0.0005730389967 -1)
(0.5730500221 -0.0005730389967 1)
(0.5730500221 -0.0005730389967 -1)
(0.5726580024 -0.001649999991 1)
(0.5726580024 -0.001649999991 -1)
(0.5723279715 -0.002121200087 1)
(0.5723279715 -0.002121200087 -1)
(0.5709289908 -0.003100990085 1)
(0.5709289908 -0.003100990085 -1)
(0.01979999989 -0.003299999982 1)
(0.01922699995 -0.003249869915 1)
(0.01922699995 -0.003249869915 -1)
(0.01979999989 -0.003299999982 -1)
(0.0181499999 -0.002857879968 1)
(0.0181499999 -0.002857879968 -1)
(0.01727209985 -0.002121200087 1)
(0.01727209985 -0.002121200087 -1)
(0.01669899933 -0.001128669945 1)
(0.01669899933 -0.001128669945 -1)
(0.01649999991 4.041329952e-19 1)
(0.01649999991 4.041329952e-19 -1)
(0.01669899933 0.001128669945 1)
(0.01669899933 0.001128669945 -1)
(0.01727209985 0.002121200087 1)
(0.01727209985 0.002121200087 -1)
(0.0181499999 0.002857879968 1)
(0.0181499999 0.002857879968 -1)
(0.01922699995 0.003249869915 1)
(0.01922699995 0.003249869915 -1)
(0.01979999989 0.003299999982 1)
(0.01979999989 0.003299999982 -1)
(0.5698000193 0.003299999982 1)
(0.5698000193 0.003299999982 -1)
(0.5703729987 0.003249869915 1)
(0.5703729987 0.003249869915 -1)
(0.571449995 0.002857879968 1)
(0.571449995 0.002857879968 -1)
(0.5719209909 0.002527950099 1)
(0.5719209909 0.002527950099 -1)
(0.5729010105 0.001128669945 1)
(0.5729010105 0.001128669945 -1)
(0.5730999708 -8.082670244e-19 1)
(0.5730999708 -8.082670244e-19 -1)
(0.5729010105 -0.001128669945 1)
(0.5729010105 -0.001128669945 -1)
(0.5719209909 -0.002527950099 1)
(0.5719209909 -0.002527950099 -1)
(0.571449995 -0.002857879968 1)
(0.571449995 -0.002857879968 -1)
(0.5703729987 -0.003249869915 1)
(0.5703729987 -0.003249869915 -1)
(0.5698000193 -0.003299999982 1)
(0.5698000193 -0.003299999982 -1)
)


// edges:

92
(
(32 33)
(34 35)
(33 0)
(0 1)
(1 34)
(0 36)
(37 1)
(36 2)
(2 3)
(3 37)
(2 38)
(39 3)
(38 4)
(4 5)
(5 39)
(4 40)
(41 5)
(40 6)
(6 7)
(7 41)
(6 42)
(43 7)
(42 8)
(8 9)
(9 43)
(8 44)
(45 9)
(44 10)
(10 11)
(11 45)
(10 46)
(47 11)
(46 12)
(12 13)
(13 47)
(12 48)
(49 13)
(48 14)
(14 15)
(15 49)
(14 50)
(51 15)
(50 52)
(53 51)
(52 54)
(55 53)
(54 56)
(57 55)
(56 16)
(16 17)
(17 57)
(16 58)
(59 17)
(58 60)
(61 59)
(60 18)
(18 19)
(19 61)
(18 20)
(20 21)
(21 19)
(20 62)
(63 21)
(62 22)
(22 23)
(23 63)
(22 64)
(65 23)
(64 24)
(24 25)
(25 65)
(24 66)
(67 25)
(66 26)
(26 27)
(27 67)
(26 28)
(28 29)
(29 27)
(28 68)
(69 29)
(68 70)
(71 69)
(70 30)
(30 31)
(31 71)
(30 72)
(73 31)
(72 74)
(75 73)
(74 32)
(35 75)
)

// * * * * * * * * * * * * * * * * * * * * * * * * * * * * * * * * * * * * * //


// ************************************************************************* //
