/*--------------------------------*- C++ -*----------------------------------*\
| =========                 |                                                 |
| \\      /  F ield         | OpenFOAM: The Open Source CFD Toolbox           |
|  \\    /   O peration     | Version:  v1912                                 |
|   \\  /    A nd           | Website:  www.openfoam.com                      |
|    \\/     M anipulation  |                                                 |
\*---------------------------------------------------------------------------*/
FoamFile
{
    version     2.0;
    format      ascii;
    class       featureEdgeMesh;
    location    "constant/triSurface";
    object      single_vaneu.eMesh;
}
// * * * * * * * * * * * * * * * * * * * * * * * * * * * * * * * * * * * * * //


// points:

76
(
(0.01932810061 0.03558100015 1)
(0.01932810061 0.03558100015 -1)
(0.01818340085 0.03563699871 1)
(0.01818340085 0.03563699871 -1)
(0.01667230017 0.03643370047 1)
(0.01667230017 0.03643370047 -1)
(0.01628590003 0.03685979918 1)
(0.01628590003 0.03685979918 -1)
(0.01564049907 0.03844140097 1)
(0.01564049907 0.03844140097 -1)
(0.01561839972 0.03901619837 1)
(0.01561839972 0.03901619837 -1)
(0.0156964995 0.03958610073 1)
(0.0156964995 0.03958610073 -1)
(0.01614060067 0.04064270109 1)
(0.01614060067 0.04064270109 -1)
(0.01691929996 0.04148359969 1)
(0.01691929996 0.04148359969 -1)
(0.01740610041 0.04179010168 1)
(0.01740610041 0.04179010168 -1)
(0.5444790125 0.2047909945 1)
(0.5444790125 0.2047909945 -1)
(0.5455960035 0.2045370042 1)
(0.5455960035 0.2045370042 -1)
(0.5465599895 0.2039159983 1)
(0.5465599895 0.2039159983 -1)
(0.5472530127 0.2030030042 1)
(0.5472530127 0.2030030042 -1)
(0.5475919843 0.2019080073 1)
(0.5475919843 0.2019080073 -1)
(0.5475360155 0.200763002 1)
(0.5475360155 0.200763002 -1)
(0.547360003 0.2002159953 1)
(0.547360003 0.2002159953 -1)
(0.5467389822 0.1992519945 1)
(0.5467389822 0.1992519945 -1)
(0.5458260179 0.1985590011 1)
(0.5458260179 0.1985590011 -1)
(0.01989030093 0.03570260108 1)
(0.01989030093 0.03570260108 -1)
(0.01875329949 0.03555899858 1)
(0.01875329949 0.03555899858 -1)
(0.01763569936 0.03581289947 1)
(0.01763569936 0.03581289947 -1)
(0.01712689921 0.0360811986 1)
(0.01712689921 0.0360811986 -1)
(0.0159793999 0.03734660149 1)
(0.0159793999 0.03734660149 -1)
(0.0157621 0.03787919879 1)
(0.0157621 0.03787919879 -1)
(0.01587240025 0.04013380036 1)
(0.01587240025 0.04013380036 -1)
(0.01649319939 0.04109720141 1)
(0.01649319939 0.04109720141 -1)
(0.01793869957 0.04200740159 1)
(0.01793869957 0.04200740159 -1)
(0.5433419943 0.2046470046 1)
(0.5433419943 0.2046470046 -1)
(0.5439040065 0.204768002 1)
(0.5439040065 0.204768002 -1)
(0.5450490117 0.2047120035 1)
(0.5450490117 0.2047120035 -1)
(0.5461050272 0.2042679936 1)
(0.5461050272 0.2042679936 -1)
(0.5469459891 0.2034900039 1)
(0.5469459891 0.2034900039 -1)
(0.5474699736 0.2024700046 1)
(0.5474699736 0.2024700046 -1)
(0.5476139784 0.2013330013 1)
(0.5476139784 0.2013330013 -1)
(0.5470910072 0.1997070014 1)
(0.5470910072 0.1997070014 -1)
(0.5463129878 0.1988659948 1)
(0.5463129878 0.1988659948 -1)
(0.5452929735 0.1983419955 1)
(0.5452929735 0.1983419955 -1)
)


// edges:

95
(
(38 0)
(0 1)
(1 39)
(0 40)
(41 1)
(40 2)
(2 3)
(3 41)
(2 42)
(43 3)
(42 44)
(45 43)
(44 4)
(4 5)
(5 45)
(4 6)
(6 7)
(7 5)
(6 46)
(47 7)
(46 48)
(49 47)
(48 8)
(8 9)
(9 49)
(8 10)
(10 11)
(11 9)
(10 12)
(12 13)
(13 11)
(12 50)
(51 13)
(50 14)
(14 15)
(15 51)
(14 52)
(53 15)
(52 16)
(16 17)
(17 53)
(16 18)
(18 19)
(19 17)
(18 54)
(55 19)
(54 56)
(57 55)
(56 58)
(59 57)
(58 20)
(20 21)
(21 59)
(20 60)
(61 21)
(60 22)
(22 23)
(23 61)
(22 62)
(63 23)
(62 24)
(24 25)
(25 63)
(24 64)
(65 25)
(64 26)
(26 27)
(27 65)
(26 66)
(67 27)
(66 28)
(28 29)
(29 67)
(28 68)
(69 29)
(68 30)
(30 31)
(31 69)
(30 32)
(32 33)
(33 31)
(32 70)
(71 33)
(70 34)
(34 35)
(35 71)
(34 72)
(73 35)
(72 36)
(36 37)
(37 73)
(36 74)
(75 37)
(74 38)
(39 75)
)

// * * * * * * * * * * * * * * * * * * * * * * * * * * * * * * * * * * * * * //


// ************************************************************************* //
