/*--------------------------------*- C++ -*----------------------------------*\
| =========                 |                                                 |
| \\      /  F ield         | OpenFOAM: The Open Source CFD Toolbox           |
|  \\    /   O peration     | Version:  v1912                                 |
|   \\  /    A nd           | Website:  www.openfoam.com                      |
|    \\/     M anipulation  |                                                 |
\*---------------------------------------------------------------------------*/
FoamFile
{
    version     2.0;
    format      ascii;
    class       polyBoundaryMesh;
    location    "constant/polyMesh";
    object      boundary;
}
// * * * * * * * * * * * * * * * * * * * * * * * * * * * * * * * * * * * * * //

7
(
    inlet
    {
        type            inlet;
        nFaces          27;
        startFace       2691;
        faces           ( ( 0 4 7 3 ) );
    }
    outlet
    {
        type            outlet;
        nFaces          15;
        startFace       2718;
        faces           ( ( 0 1 5 4 ) );
    }
    front
    {
        type            empty;
        inGroups        1(empty);
        nFaces          1385;
        startFace       2733;
    }
    back
    {
        type            empty;
        inGroups        1(empty);
        nFaces          1385;
        startFace       4118;
    }
    twalls
    {
        type            wall;
        inGroups        1(wall);
        nFaces          275;
        startFace       5503;
    }
    procBoundary1to0
    {
        type            processor;
        inGroups        1(processor);
        nFaces          32;
        startFace       5778;
        matchTolerance  0.0001;
        transform       unknown;
        myProcNo        1;
        neighbProcNo    0;
    }
    procBoundary1to2
    {
        type            processor;
        inGroups        1(processor);
        nFaces          19;
        startFace       5810;
        matchTolerance  0.0001;
        transform       unknown;
        myProcNo        1;
        neighbProcNo    2;
    }
)

// ************************************************************************* //
