/*--------------------------------*- C++ -*----------------------------------*\
| =========                 |                                                 |
| \\      /  F ield         | OpenFOAM: The Open Source CFD Toolbox           |
|  \\    /   O peration     | Version:  v1912                                 |
|   \\  /    A nd           | Website:  www.openfoam.com                      |
|    \\/     M anipulation  |                                                 |
\*---------------------------------------------------------------------------*/
FoamFile
{
    version     2.0;
    format      ascii;
    class       extendedFeatureEdgeMesh;
    location    "constant/extendedFeatureEdgeMesh";
    object      dwallu.extendedFeatureEdgeMesh;
}
// * * * * * * * * * * * * * * * * * * * * * * * * * * * * * * * * * * * * * //

// points
8((-0.04752250016 0.03227129951 1) (-0.04752250016 0.03227129951 -1) (0.4509469867 0.2647109926 1) (0.4509469867 0.2647109926 -1) (-0.0521713011 0.04224070162 1) (-0.0521713011 0.04224070162 -1) (0.4462980032 0.2746810019 1) (0.4462980032 0.2746810019 -1))
// edges

12
(
(0 1)
(2 0)
(3 2)
(1 3)
(4 5)
(0 4)
(5 1)
(6 7)
(4 6)
(7 5)
(6 2)
(3 7)
)

// concaveStart mixedStart nonFeatureStart
8 8 8
// internalStart flatStart openStart multipleStart
12 12 12 12
// normals

12
(
(0.4226175957 -0.9063080976 0)
(-0.906308052 -0.4226176935 -0)
(0 0 1)
(0.4226175957 -0.9063080976 0)
(0.9063115551 0.422610181 0)
(0 0 -1)
(-0.906308052 -0.4226176935 -0)
(-0.4226186296 0.9063076155 0)
(0 0 -1)
(-0.4226186296 0.9063076155 0)
(0.9063115551 0.422610181 0)
(0 0 1)
)

// normal volume types

12
(
0
0
0
0
0
0
0
0
0
0
0
0
)

// normalDirections

12
(
2(1 -1)
2(1 -1)
2(1 -1)
2(1 -1)
2(1 -1)
2(1 -1)
2(1 -1)
2(1 -1)
2(1 -1)
2(1 -1)
2(1 -1)
2(1 -1)
)

// edgeNormals

12
(
2(0 1)
2(0 2)
2(3 4)
2(3 5)
2(6 7)
2(6 2)
2(1 8)
2(9 10)
2(9 11)
2(7 8)
2(4 11)
2(10 5)
)

// featurePointNormals

8
(
3(0 1 2)
3(0 1 5)
3(0 2 4)
3(3 4 5)
3(6 7 2)
3(6 7 8)
3(9 10 11)
3(9 10 8)
)

// featurePointEdges

8
(
3(0 5 1)
3(3 6 0)
3(2 10 1)
3(2 11 3)
3(4 8 5)
3(6 9 4)
3(7 10 8)
3(9 11 7)
)

// regionEdges
0()


// ************************************************************************* //
