/*--------------------------------*- C++ -*----------------------------------*\
| =========                 |                                                 |
| \\      /  F ield         | OpenFOAM: The Open Source CFD Toolbox           |
|  \\    /   O peration     | Version:  v1912                                 |
|   \\  /    A nd           | Website:  www.openfoam.com                      |
|    \\/     M anipulation  |                                                 |
\*---------------------------------------------------------------------------*/
FoamFile
{
    version     2.0;
    format      ascii;
    class       extendedFeatureEdgeMesh;
    location    "constant/extendedFeatureEdgeMesh";
    object      single_vaneu.extendedFeatureEdgeMesh;
}
// * * * * * * * * * * * * * * * * * * * * * * * * * * * * * * * * * * * * * //

// points

76
(
(0.01932810061 0.03558100015 1)
(0.01932810061 0.03558100015 -1)
(0.01818340085 0.03563699871 1)
(0.01818340085 0.03563699871 -1)
(0.01667230017 0.03643370047 1)
(0.01667230017 0.03643370047 -1)
(0.01628590003 0.03685979918 1)
(0.01628590003 0.03685979918 -1)
(0.01564049907 0.03844140097 1)
(0.01564049907 0.03844140097 -1)
(0.01561839972 0.03901619837 1)
(0.01561839972 0.03901619837 -1)
(0.0156964995 0.03958610073 1)
(0.0156964995 0.03958610073 -1)
(0.01614060067 0.04064270109 1)
(0.01614060067 0.04064270109 -1)
(0.01691929996 0.04148359969 1)
(0.01691929996 0.04148359969 -1)
(0.01740610041 0.04179010168 1)
(0.01740610041 0.04179010168 -1)
(0.5444790125 0.2047909945 1)
(0.5444790125 0.2047909945 -1)
(0.5455960035 0.2045370042 1)
(0.5455960035 0.2045370042 -1)
(0.5465599895 0.2039159983 1)
(0.5465599895 0.2039159983 -1)
(0.5472530127 0.2030030042 1)
(0.5472530127 0.2030030042 -1)
(0.5475919843 0.2019080073 1)
(0.5475919843 0.2019080073 -1)
(0.5475360155 0.200763002 1)
(0.5475360155 0.200763002 -1)
(0.547360003 0.2002159953 1)
(0.547360003 0.2002159953 -1)
(0.5467389822 0.1992519945 1)
(0.5467389822 0.1992519945 -1)
(0.5458260179 0.1985590011 1)
(0.5458260179 0.1985590011 -1)
(0.01989030093 0.03570260108 1)
(0.01989030093 0.03570260108 -1)
(0.01875329949 0.03555899858 1)
(0.01875329949 0.03555899858 -1)
(0.01763569936 0.03581289947 1)
(0.01763569936 0.03581289947 -1)
(0.01712689921 0.0360811986 1)
(0.01712689921 0.0360811986 -1)
(0.0159793999 0.03734660149 1)
(0.0159793999 0.03734660149 -1)
(0.0157621 0.03787919879 1)
(0.0157621 0.03787919879 -1)
(0.01587240025 0.04013380036 1)
(0.01587240025 0.04013380036 -1)
(0.01649319939 0.04109720141 1)
(0.01649319939 0.04109720141 -1)
(0.01793869957 0.04200740159 1)
(0.01793869957 0.04200740159 -1)
(0.5433419943 0.2046470046 1)
(0.5433419943 0.2046470046 -1)
(0.5439040065 0.204768002 1)
(0.5439040065 0.204768002 -1)
(0.5450490117 0.2047120035 1)
(0.5450490117 0.2047120035 -1)
(0.5461050272 0.2042679936 1)
(0.5461050272 0.2042679936 -1)
(0.5469459891 0.2034900039 1)
(0.5469459891 0.2034900039 -1)
(0.5474699736 0.2024700046 1)
(0.5474699736 0.2024700046 -1)
(0.5476139784 0.2013330013 1)
(0.5476139784 0.2013330013 -1)
(0.5470910072 0.1997070014 1)
(0.5470910072 0.1997070014 -1)
(0.5463129878 0.1988659948 1)
(0.5463129878 0.1988659948 -1)
(0.5452929735 0.1983419955 1)
(0.5452929735 0.1983419955 -1)
)

// edges

95
(
(38 0)
(0 1)
(1 39)
(0 40)
(41 1)
(40 2)
(2 3)
(3 41)
(2 42)
(43 3)
(42 44)
(45 43)
(44 4)
(4 5)
(5 45)
(4 6)
(6 7)
(7 5)
(6 46)
(47 7)
(46 48)
(49 47)
(48 8)
(8 9)
(9 49)
(8 10)
(10 11)
(11 9)
(10 12)
(12 13)
(13 11)
(12 50)
(51 13)
(50 14)
(14 15)
(15 51)
(14 52)
(53 15)
(52 16)
(16 17)
(17 53)
(16 18)
(18 19)
(19 17)
(18 54)
(55 19)
(54 56)
(57 55)
(56 58)
(59 57)
(58 20)
(20 21)
(21 59)
(20 60)
(61 21)
(60 22)
(22 23)
(23 61)
(22 62)
(63 23)
(62 24)
(24 25)
(25 63)
(24 64)
(65 25)
(64 26)
(26 27)
(27 65)
(26 66)
(67 27)
(66 28)
(28 29)
(29 67)
(28 68)
(69 29)
(68 30)
(30 31)
(31 69)
(30 32)
(32 33)
(33 31)
(32 70)
(71 33)
(70 34)
(34 35)
(35 71)
(34 72)
(73 35)
(72 36)
(36 37)
(37 73)
(36 74)
(75 37)
(74 38)
(39 75)
)

// concaveStart mixedStart nonFeatureStart
38 38 38
// internalStart flatStart openStart multipleStart
95 95 95 95
// normals

148
(
(0.2114060356 -0.9773983262 0)
(0 0 1)
(0.2114060356 -0.9773983262 0)
(0.03824882053 -0.9992682461 0)
(-0 0 -1)
(0 0 1)
(0.03824882053 -0.9992682461 0)
(0 0 -1)
(-0.1356024769 -0.9907633261 0)
(0 0 1)
(-0.1356024769 -0.9907633261 0)
(-0.305778899 -0.9521025496 0)
(0 0 -1)
(0 0 1)
(-0.305778899 -0.9521025496 0)
(0 0 -1)
(-0.4664400279 -0.8845528251 0)
(-0.4664400279 -0.8845528251 0)
(0 0 -1)
(-0.6127754045 -0.7902571124 0)
(0 0 1)
(-0.6127754045 -0.7902571124 0)
(-0.7407722092 -0.6717563056 0)
(0 0 1)
(-0.7407722092 -0.6717563056 0)
(-0.8462367873 -0.5328070005 0)
(0 0 -1)
(0 0 1)
(-0.8462367873 -0.5328070005 0)
(0 0 -1)
(-0.9259003975 -0.3777677248 0)
(0 0 1)
(-0.9259003975 -0.3777677248 0)
(0 0 -1)
(-0.9773984709 -0.2114053665 0)
(0 0 1)
(-0.9773984709 -0.2114053665 0)
(-0.9992617246 -0.03841882074 0)
(0 0 -1)
(0 0 1)
(-0.9992617246 -0.03841882074 0)
(-0.9907401562 0.1357716574 0)
(0 0 -1)
(-0 0 1)
(-0.9907401562 0.1357716574 0)
(-0.9521022468 0.3057798417 0)
(0 0 -1)
(-0 0 1)
(-0.9521022468 0.3057798417 0)
(0 0 -1)
(-0.8846616486 0.4662335976 0)
(0 0 1)
(-0.8846616486 0.4662335976 0)
(-0.7901111114 0.6129636462 0)
(0 0 -1)
(0 0 1)
(-0.7901111114 0.6129636462 0)
(0 0 -1)
(-0.6717529173 0.7407752818 0)
(0 0 1)
(-0.6717529173 0.7407752818 0)
(-0.5328107792 0.8462344082 0)
(0 0 -1)
(0 0 1)
(-0.5328107792 0.8462344082 0)
(-0.3777665922 0.9259008596 0)
(0 0 -1)
(0 0 1)
(-0.3777665922 0.9259008596 0)
(0 0 -1)
(-0.2957082408 0.9552783031 0)
(-0 0 1)
(-0.2957082408 0.9552783031 0)
(-0 0 -1)
(-0.2104707108 0.9776001636 0)
(-0 0 1)
(-0.2104707108 0.9776001636 0)
(0 0 -1)
(-0.03995459492 0.9992014964 0)
(-0 0 1)
(-0.03995459492 0.9992014964 0)
(0.1372691518 0.9905337854 -0)
(0 0 -1)
(0 0 1)
(0.1372691518 0.9905337854 0)
(0 0 -1)
(0.3047154734 0.9524434263 -0)
(0 0 1)
(0.3047154734 0.9524434263 0)
(0.4672466347 0.8841270171 -0)
(0 0 -1)
(0 0 1)
(0.4672466347 0.8841270171 0)
(0 0 -1)
(0.6119192387 0.7909202522 -0)
(0.6119192387 0.7909202522 0)
(0.7410369295 0.6714642724 -0)
(0 0 1)
(0.7410369295 0.6714642724 0)
(0 0 -1)
(0.8459240795 0.5333033393 -0)
(0 0 1)
(0.8459240795 0.5333033393 0)
(0.9262059167 0.3770180365 -0)
(-0 -0 -1)
(0 0 1)
(0.9262059167 0.3770180365 0)
(0 0 -1)
(0.977235024 0.2121596282 -0)
(0 0 1)
(0.977235024 0.2121596282 0)
(0.9992692616 0.03822228232 -0)
(-0 -0 -1)
(0 0 1)
(0.9992692616 0.03822228232 0)
(0 0 -1)
(0.9907752367 -0.135515425 0)
(0 0 1)
(0.9907752367 -0.135515425 0)
(0.9519327316 -0.306307157 0)
(0 0 -1)
(0 0 1)
(0.9519327316 -0.306307157 0)
(0.884126408 -0.4672477873 0)
(-0 0 -1)
(0 -0 1)
(0.884126408 -0.4672477873 0)
(0 0 -1)
(0.7909242768 -0.6119140368 0)
(0 0 1)
(0.7909242768 -0.6119140368 0)
(0.6714642724 -0.7410369295 0)
(0 0 -1)
(0 0 1)
(0.6714642724 -0.7410369295 0)
(0 0 -1)
(0.5332896483 -0.8459327107 0)
(0 -0 1)
(0.5332896483 -0.8459327107 0)
(0.3770575461 -0.9261898331 0)
(0 0 -1)
(0 0 1)
(0.3770575461 -0.9261898331 0)
(0 0 -1)
(0.2957082142 -0.9552783113 0)
(0 0 1)
(0.2957082142 -0.9552783113 0)
(0 0 -1)
)

// normal volume types

148
(
0
0
0
0
0
0
0
0
0
0
0
0
0
0
0
0
0
0
0
0
0
0
0
0
0
0
0
0
0
0
0
0
0
0
0
0
0
0
0
0
0
0
0
0
0
0
0
0
0
0
0
0
0
0
0
0
0
0
0
0
0
0
0
0
0
0
0
0
0
0
0
0
0
0
0
0
0
0
0
0
0
0
0
0
0
0
0
0
0
0
0
0
0
0
0
0
0
0
0
0
0
0
0
0
0
0
0
0
0
0
0
0
0
0
0
0
0
0
0
0
0
0
0
0
0
0
0
0
0
0
0
0
0
0
0
0
0
0
0
0
0
0
0
0
0
0
0
0
)

// normalDirections

95
(
2(1 -1)
2(1 -1)
2(1 -1)
2(1 -1)
2(1 -1)
2(1 -1)
2(1 -1)
2(1 -1)
2(1 -1)
2(1 -1)
2(1 -1)
2(1 -1)
2(1 -1)
2(1 -1)
2(1 -1)
2(1 -1)
2(1 -1)
2(1 -1)
2(1 -1)
2(1 -1)
2(1 -1)
2(1 -1)
2(1 -1)
2(1 -1)
2(1 -1)
2(1 -1)
2(1 -1)
2(1 -1)
2(1 -1)
2(1 -1)
2(1 -1)
2(1 -1)
2(1 -1)
2(1 -1)
2(1 -1)
2(1 -1)
2(1 -1)
2(1 -1)
2(1 -1)
2(1 -1)
2(1 -1)
2(1 -1)
2(1 -1)
2(1 -1)
2(1 -1)
2(1 -1)
2(1 -1)
2(1 -1)
2(1 -1)
2(1 -1)
2(1 -1)
2(1 -1)
2(1 -1)
2(1 -1)
2(1 -1)
2(1 -1)
2(1 -1)
2(1 -1)
2(1 -1)
2(1 -1)
2(1 -1)
2(1 -1)
2(1 -1)
2(1 -1)
2(1 -1)
2(1 -1)
2(1 -1)
2(1 -1)
2(1 -1)
2(1 -1)
2(1 -1)
2(1 -1)
2(1 -1)
2(1 -1)
2(1 -1)
2(1 -1)
2(1 -1)
2(1 -1)
2(1 -1)
2(1 -1)
2(1 -1)
2(1 -1)
2(1 -1)
2(1 -1)
2(1 -1)
2(1 -1)
2(1 -1)
2(1 -1)
2(1 -1)
2(1 -1)
2(1 -1)
2(1 -1)
2(1 -1)
2(1 -1)
2(1 -1)
)

// edgeNormals

95
(
2(0 1)
2(2 3)
2(2 4)
2(3 5)
2(6 7)
2(8 9)
2(10 11)
2(10 12)
2(11 13)
2(14 15)
2(16 13)
2(17 18)
2(19 20)
2(21 22)
2(21 18)
2(22 23)
2(24 25)
2(24 26)
2(25 27)
2(28 29)
2(30 31)
2(32 33)
2(34 35)
2(36 37)
2(36 38)
2(37 39)
2(40 41)
2(40 42)
2(41 43)
2(44 45)
2(44 46)
2(45 47)
2(48 49)
2(50 51)
2(52 53)
2(52 54)
2(53 55)
2(56 57)
2(58 59)
2(60 61)
2(60 62)
2(61 63)
2(64 65)
2(64 66)
2(65 67)
2(68 69)
2(70 71)
2(72 73)
2(74 75)
2(76 77)
2(78 79)
2(80 81)
2(80 82)
2(81 83)
2(84 85)
2(86 87)
2(88 89)
2(88 90)
2(89 91)
2(92 93)
2(94 91)
2(95 96)
2(95 93)
2(96 97)
2(98 99)
2(100 101)
2(102 103)
2(102 104)
2(103 105)
2(106 107)
2(108 109)
2(110 111)
2(110 112)
2(111 113)
2(114 115)
2(116 117)
2(118 119)
2(118 120)
2(119 121)
2(122 123)
2(122 124)
2(123 125)
2(126 127)
2(128 129)
2(130 131)
2(130 132)
2(131 133)
2(134 135)
2(136 137)
2(138 139)
2(138 140)
2(139 141)
2(142 143)
2(144 145)
2(146 147)
)

// featurePointNormals

38
(
3(0 1 3)
3(2 3 4)
3(8 9 11)
3(10 11 12)
3(19 20 22)
3(21 22 18)
3(22 23 25)
3(24 25 26)
3(34 35 37)
3(36 37 38)
3(37 39 41)
3(40 41 42)
3(41 43 45)
3(44 45 46)
3(50 51 53)
3(52 53 54)
3(58 59 61)
3(60 61 62)
3(61 63 65)
3(64 65 66)
3(78 79 81)
3(80 81 82)
3(86 87 89)
3(88 89 90)
3(94 91 96)
3(95 96 93)
3(100 101 103)
3(102 103 104)
3(108 109 111)
3(110 111 112)
3(116 117 119)
3(118 119 120)
3(119 121 123)
3(122 123 124)
3(128 129 131)
3(130 131 132)
3(136 137 139)
3(138 139 140)
)

// featurePointEdges

38
(
3(1 3 0)
3(1 4 2)
3(6 8 5)
3(6 9 7)
3(13 15 12)
3(13 17 14)
3(16 18 15)
3(16 19 17)
3(23 25 22)
3(23 27 24)
3(26 28 25)
3(26 30 27)
3(29 31 28)
3(29 32 30)
3(34 36 33)
3(34 37 35)
3(39 41 38)
3(39 43 40)
3(42 44 41)
3(42 45 43)
3(51 53 50)
3(51 54 52)
3(56 58 55)
3(56 59 57)
3(61 63 60)
3(61 64 62)
3(66 68 65)
3(66 69 67)
3(71 73 70)
3(71 74 72)
3(76 78 75)
3(76 80 77)
3(79 81 78)
3(79 82 80)
3(84 86 83)
3(84 87 85)
3(89 91 88)
3(89 92 90)
)

// regionEdges
0()


// ************************************************************************* //
