/*--------------------------------*- C++ -*----------------------------------*\
| =========                 |                                                 |
| \\      /  F ield         | OpenFOAM: The Open Source CFD Toolbox           |
|  \\    /   O peration     | Version:  v1912                                 |
|   \\  /    A nd           | Website:  www.openfoam.com                      |
|    \\/     M anipulation  |                                                 |
\*---------------------------------------------------------------------------*/
FoamFile
{
    version     2.0;
    format      ascii;
    class       polyBoundaryMesh;
    location    "constant/polyMesh";
    object      boundary;
}
// * * * * * * * * * * * * * * * * * * * * * * * * * * * * * * * * * * * * * //

9
(
    inlet
    {
        type            inlet;
        nFaces          0;
        startFace       7351;
        faces           ( ( 0 4 7 3 ) );
    }
    outlet
    {
        type            outlet;
        nFaces          55;
        startFace       7351;
        faces           ( ( 2 6 5 1 ) );
    }
    wall
    {
        type            wall;
        inGroups        1(wall);
        nFaces          49;
        startFace       7406;
    }
    front
    {
        type            empty;
        inGroups        1(empty);
        nFaces          3753;
        startFace       7455;
    }
    back
    {
        type            empty;
        inGroups        1(empty);
        nFaces          3753;
        startFace       11208;
    }
    vanem
    {
        type            wall;
        inGroups        1(wall);
        nFaces          195;
        startFace       14961;
    }
    vaneu
    {
        type            wall;
        inGroups        1(wall);
        nFaces          390;
        startFace       15156;
    }
    vanel
    {
        type            wall;
        inGroups        1(wall);
        nFaces          0;
        startFace       15546;
    }
    procBoundary3to2
    {
        type            processor;
        inGroups        1(processor);
        nFaces          58;
        startFace       15546;
        matchTolerance  0.0001;
        transform       unknown;
        myProcNo        3;
        neighbProcNo    2;
    }
)

// ************************************************************************* //
