/*--------------------------------*- C++ -*----------------------------------*\
| =========                 |                                                 |
| \\      /  F ield         | OpenFOAM: The Open Source CFD Toolbox           |
|  \\    /   O peration     | Version:  v1912                                 |
|   \\  /    A nd           | Website:  www.openfoam.com                      |
|    \\/     M anipulation  |                                                 |
\*---------------------------------------------------------------------------*/
FoamFile
{
    version     2.0;
    format      ascii;
    class       polyBoundaryMesh;
    location    "constant/polyMesh";
    object      boundary;
}
// * * * * * * * * * * * * * * * * * * * * * * * * * * * * * * * * * * * * * //

8
(
    inlet
    {
        type            inlet;
        nFaces          80;
        startFace       15440;
        faces           ( ( 0 4 7 3 ) );
    }
    outlet
    {
        type            outlet;
        nFaces          0;
        startFace       15520;
        faces           ( ( 0 1 5 4 ) );
    }
    front
    {
        type            empty;
        inGroups        1(empty);
        nFaces          7831;
        startFace       15520;
    }
    back
    {
        type            empty;
        inGroups        1(empty);
        nFaces          7831;
        startFace       23351;
    }
    twalls
    {
        type            wall;
        inGroups        1(wall);
        nFaces          799;
        startFace       31182;
    }
    procBoundary0to1
    {
        type            processor;
        inGroups        1(processor);
        nFaces          88;
        startFace       31981;
        matchTolerance  0.0001;
        transform       unknown;
        myProcNo        0;
        neighbProcNo    1;
    }
    procBoundary0to2
    {
        type            processor;
        inGroups        1(processor);
        nFaces          37;
        startFace       32069;
        matchTolerance  0.0001;
        transform       unknown;
        myProcNo        0;
        neighbProcNo    2;
    }
    procBoundary0to3
    {
        type            processor;
        inGroups        1(processor);
        nFaces          50;
        startFace       32106;
        matchTolerance  0.0001;
        transform       unknown;
        myProcNo        0;
        neighbProcNo    3;
    }
)

// ************************************************************************* //
