/*--------------------------------*- C++ -*----------------------------------*\
| =========                 |                                                 |
| \\      /  F ield         | OpenFOAM: The Open Source CFD Toolbox           |
|  \\    /   O peration     | Version:  v1912                                 |
|   \\  /    A nd           | Website:  www.openfoam.com                      |
|    \\/     M anipulation  |                                                 |
\*---------------------------------------------------------------------------*/
FoamFile
{
    version     2.0;
    format      ascii;
    class       polyBoundaryMesh;
    location    "constant/polyMesh";
    object      boundary;
}
// * * * * * * * * * * * * * * * * * * * * * * * * * * * * * * * * * * * * * //

7
(
    inlet
    {
        type            inlet;
        nFaces          0;
        startFace       11161;
        faces           ( ( 0 4 7 3 ) );
    }
    outlet
    {
        type            outlet;
        nFaces          0;
        startFace       11161;
        faces           ( ( 0 1 5 4 ) );
    }
    front
    {
        type            empty;
        inGroups        1(empty);
        nFaces          5681;
        startFace       11161;
    }
    back
    {
        type            empty;
        inGroups        1(empty);
        nFaces          5681;
        startFace       16842;
    }
    twalls
    {
        type            wall;
        inGroups        1(wall);
        nFaces          1150;
        startFace       22523;
    }
    procBoundary2to0
    {
        type            processor;
        inGroups        1(processor);
        nFaces          37;
        startFace       23673;
        matchTolerance  0.0001;
        transform       unknown;
        myProcNo        2;
        neighbProcNo    0;
    }
    procBoundary2to3
    {
        type            processor;
        inGroups        1(processor);
        nFaces          72;
        startFace       23710;
        matchTolerance  0.0001;
        transform       unknown;
        myProcNo        2;
        neighbProcNo    3;
    }
)

// ************************************************************************* //
