/*--------------------------------*- C++ -*----------------------------------*\
| =========                 |                                                 |
| \\      /  F ield         | OpenFOAM: The Open Source CFD Toolbox           |
|  \\    /   O peration     | Version:  v2006                                 |
|   \\  /    A nd           | Website:  www.openfoam.com                      |
|    \\/     M anipulation  |                                                 |
\*---------------------------------------------------------------------------*/
FoamFile
{
    version     2.0;
    format      ascii;
    class       dictionary;
    object      fvSolution;
}
// * * * * * * * * * * * * * * * * * * * * * * * * * * * * * * * * * * * * * //

solvers
{
    cellDisplacement
    {
        solver          GAMG;
        smoother        GaussSeidel;
        tolerance       1e-7;
        relTol          0;
    }

    Phi
    {
        solver          GAMG;
        smoother        DIC;

        tolerance       1e-07;
        relTol          0.01;
    }

    "(p|pcorr)"
    {
        solver          GAMG;
        smoother        GaussSeidel;
        tolerance       1e-7;
        relTol          0.1;
    }

    "(p|pcorr)Final"
    {
	$p
        tolerance       1e-7;
        relTol          0;
    }

    "(U|k|omega|epsilon)"
    {
        solver          smoothSolver;
        smoother        symGaussSeidel;
        tolerance       1e-7;
        relTol          0.1;
    }

    "(U|k|omega|epsilon)Final"
    {
	$U
        tolerance       1e-7;
        relTol          0;
    }
}

PIMPLE
{
    momentumPredictor   true;
    nOuterCorrectors    30;
    nCorrectors         4;
    nNonOrthogonalCorrectors 2;

    //correctPhi          true;
    ddtCorr             true;

    residualControl
    {
        U
        {
                tolerance  1e-5;
                relTol      0;
        }
        p
        {
                tolerance  1e-4;
                relTol      0;
        }

        "(k|epsilon|omega)"
        {
                tolerance  1e-5;
                relTol      0;
        }
    }
}


SIMPLE
{
    nNonOrthogonalCorrectors 2;
    consistent      yes;

    residualControl
    {
        U                   1e-5;
        p                   1e-4;
        "(k|epsilon|omega)" 1e-5;
    }
}

potentialFlow
{
    nNonOrthogonalCorrectors 5;
}

relaxationFactors
{
    /*fields
    {
        p                   0.25;
        U                   0.25;
        "(k|omega|epsilon)" 0.25;
    }*/
    equations
    {
        p                   0.5;
        U                   0.7;
        "(k|omega|epsilon)" 0.7;
    }
}

// ************************************************************************* //
