/*--------------------------------*- C++ -*----------------------------------*\
| =========                 |                                                 |
| \\      /  F ield         | OpenFOAM: The Open Source CFD Toolbox           |
|  \\    /   O peration     | Version:  v1912                                 |
|   \\  /    A nd           | Website:  www.openfoam.com                      |
|    \\/     M anipulation  |                                                 |
\*---------------------------------------------------------------------------*/
FoamFile
{
    version     2.0;
    format      ascii;
    class       polyBoundaryMesh;
    location    "constant/polyMesh";
    object      boundary;
}
// * * * * * * * * * * * * * * * * * * * * * * * * * * * * * * * * * * * * * //

8
(
    inlet
    {
        type            inlet;
        nFaces          0;
        startFace       3465;
        faces           ( ( 0 4 7 3 ) );
    }
    outlet
    {
        type            outlet;
        nFaces          38;
        startFace       3465;
        faces           ( ( 0 1 5 4 ) );
    }
    front
    {
        type            empty;
        inGroups        1(empty);
        nFaces          1775;
        startFace       3503;
    }
    back
    {
        type            empty;
        inGroups        1(empty);
        nFaces          1775;
        startFace       5278;
    }
    twalls
    {
        type            wall;
        inGroups        1(wall);
        nFaces          286;
        startFace       7053;
    }
    procBoundary0to1
    {
        type            processor;
        inGroups        1(processor);
        nFaces          32;
        startFace       7339;
        matchTolerance  0.0001;
        transform       unknown;
        myProcNo        0;
        neighbProcNo    1;
    }
    procBoundary0to2
    {
        type            processor;
        inGroups        1(processor);
        nFaces          25;
        startFace       7371;
        matchTolerance  0.0001;
        transform       unknown;
        myProcNo        0;
        neighbProcNo    2;
    }
    procBoundary0to3
    {
        type            processor;
        inGroups        1(processor);
        nFaces          24;
        startFace       7396;
        matchTolerance  0.0001;
        transform       unknown;
        myProcNo        0;
        neighbProcNo    3;
    }
)

// ************************************************************************* //
