/*--------------------------------*- C++ -*----------------------------------*\
| =========                 |                                                 |
| \\      /  F ield         | OpenFOAM: The Open Source CFD Toolbox           |
|  \\    /   O peration     | Version:  v1912                                 |
|   \\  /    A nd           | Website:  www.openfoam.com                      |
|    \\/     M anipulation  |                                                 |
\*---------------------------------------------------------------------------*/
FoamFile
{
    version     2.0;
    format      ascii;
    class       polyBoundaryMesh;
    location    "constant/polyMesh";
    object      boundary;
}
// * * * * * * * * * * * * * * * * * * * * * * * * * * * * * * * * * * * * * //

8
(
    inlet
    {
        type            inlet;
        nFaces          16;
        startFace       14130;
        faces           ( ( 0 4 7 3 ) );
    }
    outlet
    {
        type            outlet;
        nFaces          50;
        startFace       14146;
        faces           ( ( 2 6 5 1 ) );
    }
    front
    {
        type            empty;
        inGroups        1(empty);
        nFaces          7139;
        startFace       14196;
    }
    back
    {
        type            empty;
        inGroups        1(empty);
        nFaces          7139;
        startFace       21335;
    }
    defaultFaces
    {
        type            empty;
        inGroups        1(empty);
        nFaces          0;
        startFace       28474;
    }
    dfwall
    {
        type            wall;
        inGroups        1(wall);
        nFaces          1719;
        startFace       28474;
    }
    procBoundary0to1
    {
        type            processor;
        inGroups        1(processor);
        nFaces          12;
        startFace       30193;
        matchTolerance  0.0001;
        transform       unknown;
        myProcNo        0;
        neighbProcNo    1;
    }
    procBoundary0to2
    {
        type            processor;
        inGroups        1(processor);
        nFaces          13;
        startFace       30205;
        matchTolerance  0.0001;
        transform       unknown;
        myProcNo        0;
        neighbProcNo    2;
    }
)

// ************************************************************************* //
