/*--------------------------------*- C++ -*----------------------------------*\
| =========                 |                                                 |
| \\      /  F ield         | OpenFOAM: The Open Source CFD Toolbox           |
|  \\    /   O peration     | Version:  v1912                                 |
|   \\  /    A nd           | Website:  www.openfoam.com                      |
|    \\/     M anipulation  |                                                 |
\*---------------------------------------------------------------------------*/
FoamFile
{
    version     2.0;
    format      ascii;
    class       polyBoundaryMesh;
    location    "constant/polyMesh";
    object      boundary;
}
// * * * * * * * * * * * * * * * * * * * * * * * * * * * * * * * * * * * * * //

9
(
    inlet
    {
        type            inlet;
        nFaces          0;
        startFace       7194;
        faces           ( ( 0 4 7 3 ) );
    }
    outlet
    {
        type            outlet;
        nFaces          55;
        startFace       7194;
        faces           ( ( 2 6 5 1 ) );
    }
    wall
    {
        type            wall;
        inGroups        1(wall);
        nFaces          49;
        startFace       7249;
    }
    front
    {
        type            empty;
        inGroups        1(empty);
        nFaces          3675;
        startFace       7298;
    }
    back
    {
        type            empty;
        inGroups        1(empty);
        nFaces          3675;
        startFace       10973;
    }
    vanem
    {
        type            wall;
        inGroups        1(wall);
        nFaces          194;
        startFace       14648;
    }
    vaneu
    {
        type            wall;
        inGroups        1(wall);
        nFaces          0;
        startFace       14842;
    }
    vanel
    {
        type            wall;
        inGroups        1(wall);
        nFaces          388;
        startFace       14842;
    }
    procBoundary1to0
    {
        type            processor;
        inGroups        1(processor);
        nFaces          58;
        startFace       15230;
        matchTolerance  0.0001;
        transform       unknown;
        myProcNo        1;
        neighbProcNo    0;
    }
)

// ************************************************************************* //
