/*--------------------------------*- C++ -*----------------------------------*\
| =========                 |                                                 |
| \\      /  F ield         | OpenFOAM: The Open Source CFD Toolbox           |
|  \\    /   O peration     | Version:  v1912                                 |
|   \\  /    A nd           | Website:  www.openfoam.com                      |
|    \\/     M anipulation  |                                                 |
\*---------------------------------------------------------------------------*/
FoamFile
{
    version     2.0;
    format      ascii;
    class       extendedFeatureEdgeMesh;
    location    "constant/extendedFeatureEdgeMesh";
    object      single_vanem.extendedFeatureEdgeMesh;
}
// * * * * * * * * * * * * * * * * * * * * * * * * * * * * * * * * * * * * * //

// points

76
(
(0.01867130026 -0.003100990085 1)
(0.01867130026 -0.003100990085 -1)
(0.01767879911 -0.002527950099 1)
(0.01767879911 -0.002527950099 -1)
(0.0169421006 -0.001649999991 1)
(0.0169421006 -0.001649999991 -1)
(0.01655009948 -0.0005730389967 1)
(0.01655009948 -0.0005730389967 -1)
(0.01655009948 0.0005730389967 1)
(0.01655009948 0.0005730389967 -1)
(0.0169421006 0.001649999991 1)
(0.0169421006 0.001649999991 -1)
(0.01767879911 0.002527950099 1)
(0.01767879911 0.002527950099 -1)
(0.01867130026 0.003100990085 1)
(0.01867130026 0.003100990085 -1)
(0.5709289908 0.003100990085 1)
(0.5709289908 0.003100990085 -1)
(0.5723279715 0.002121200087 1)
(0.5723279715 0.002121200087 -1)
(0.5726580024 0.001649999991 1)
(0.5726580024 0.001649999991 -1)
(0.5730500221 0.0005730389967 1)
(0.5730500221 0.0005730389967 -1)
(0.5730500221 -0.0005730389967 1)
(0.5730500221 -0.0005730389967 -1)
(0.5726580024 -0.001649999991 1)
(0.5726580024 -0.001649999991 -1)
(0.5723279715 -0.002121200087 1)
(0.5723279715 -0.002121200087 -1)
(0.5709289908 -0.003100990085 1)
(0.5709289908 -0.003100990085 -1)
(0.01979999989 -0.003299999982 1)
(0.01922699995 -0.003249869915 1)
(0.01922699995 -0.003249869915 -1)
(0.01979999989 -0.003299999982 -1)
(0.0181499999 -0.002857879968 1)
(0.0181499999 -0.002857879968 -1)
(0.01727209985 -0.002121200087 1)
(0.01727209985 -0.002121200087 -1)
(0.01669899933 -0.001128669945 1)
(0.01669899933 -0.001128669945 -1)
(0.01649999991 4.041329952e-19 1)
(0.01649999991 4.041329952e-19 -1)
(0.01669899933 0.001128669945 1)
(0.01669899933 0.001128669945 -1)
(0.01727209985 0.002121200087 1)
(0.01727209985 0.002121200087 -1)
(0.0181499999 0.002857879968 1)
(0.0181499999 0.002857879968 -1)
(0.01922699995 0.003249869915 1)
(0.01922699995 0.003249869915 -1)
(0.01979999989 0.003299999982 1)
(0.01979999989 0.003299999982 -1)
(0.5698000193 0.003299999982 1)
(0.5698000193 0.003299999982 -1)
(0.5703729987 0.003249869915 1)
(0.5703729987 0.003249869915 -1)
(0.571449995 0.002857879968 1)
(0.571449995 0.002857879968 -1)
(0.5719209909 0.002527950099 1)
(0.5719209909 0.002527950099 -1)
(0.5729010105 0.001128669945 1)
(0.5729010105 0.001128669945 -1)
(0.5730999708 -8.082670244e-19 1)
(0.5730999708 -8.082670244e-19 -1)
(0.5729010105 -0.001128669945 1)
(0.5729010105 -0.001128669945 -1)
(0.5719209909 -0.002527950099 1)
(0.5719209909 -0.002527950099 -1)
(0.571449995 -0.002857879968 1)
(0.571449995 -0.002857879968 -1)
(0.5703729987 -0.003249869915 1)
(0.5703729987 -0.003249869915 -1)
(0.5698000193 -0.003299999982 1)
(0.5698000193 -0.003299999982 -1)
)

// edges

92
(
(32 33)
(34 35)
(33 0)
(0 1)
(1 34)
(0 36)
(37 1)
(36 2)
(2 3)
(3 37)
(2 38)
(39 3)
(38 4)
(4 5)
(5 39)
(4 40)
(41 5)
(40 6)
(6 7)
(7 41)
(6 42)
(43 7)
(42 8)
(8 9)
(9 43)
(8 44)
(45 9)
(44 10)
(10 11)
(11 45)
(10 46)
(47 11)
(46 12)
(12 13)
(13 47)
(12 48)
(49 13)
(48 14)
(14 15)
(15 49)
(14 50)
(51 15)
(50 52)
(53 51)
(52 54)
(55 53)
(54 56)
(57 55)
(56 16)
(16 17)
(17 57)
(16 58)
(59 17)
(58 60)
(61 59)
(60 18)
(18 19)
(19 61)
(18 20)
(20 21)
(21 19)
(20 62)
(63 21)
(62 22)
(22 23)
(23 63)
(22 64)
(65 23)
(64 24)
(24 25)
(25 65)
(24 66)
(67 25)
(66 26)
(26 27)
(27 67)
(26 28)
(28 29)
(29 27)
(28 68)
(69 29)
(68 70)
(71 69)
(70 30)
(30 31)
(31 71)
(30 72)
(73 31)
(72 74)
(75 73)
(74 32)
(35 75)
)

// concaveStart mixedStart nonFeatureStart
32 32 32
// internalStart flatStart openStart multipleStart
92 92 92 92
// normals

148
(
(-0.08715413558 -0.9961948387 0)
(0 0 1)
(-0.08715413558 -0.9961948387 0)
(0 0 -1)
(-0.2587874951 -0.9659342795 0)
(0 0 1)
(-0.2587874951 -0.9659342795 0)
(-0.4226521999 -0.9062919606 0)
(0 0 -1)
(0 0 1)
(-0.4226521999 -0.9062919606 0)
(0 0 -1)
(-0.5735665462 -0.8191589694 0)
(0 0 1)
(-0.5735665462 -0.8191589694 0)
(-0.7071509014 -0.7070626582 0)
(0 0 -1)
(-0.7071509014 -0.7070626582 0)
(0 0 -1)
(-0.8191018975 -0.5736480468 0)
(0 0 1)
(-0.8191018975 -0.5736480468 0)
(-0.9063070706 -0.4226197981 0)
(0 0 1)
(-0.9063070706 -0.4226197981 0)
(0 0 -1)
(-0.9659175729 -0.2588498452 0)
(0 0 1)
(-0.9659175729 -0.2588498452 0)
(-0.9961999564 -0.08709561886 0)
(0 0 -1)
(0 0 1)
(-0.9961999564 -0.08709561886 0)
(0 0 -1)
(-0.9961999564 0.08709561886 0)
(0 0 1)
(-0.9961999564 0.08709561886 0)
(-0.9659175729 0.2588498452 0)
(0 0 -1)
(0 0 1)
(-0.9659175729 0.2588498452 0)
(0 0 -1)
(-0.9063070706 0.4226197981 0)
(-0 0 1)
(-0.9063070706 0.4226197981 0)
(-0.8191018975 0.5736480468 0)
(0 0 -1)
(-0 0 1)
(-0.8191018975 0.5736480468 0)
(0 0 -1)
(-0.7071509014 0.7070626582 0)
(0 0 1)
(-0.7071509014 0.7070626582 0)
(-0.5735665462 0.8191589694 0)
(0 0 -1)
(0 0 1)
(-0.5735665462 0.8191589694 0)
(0 0 -1)
(-0.4226521999 0.9062919606 0)
(0 0 1)
(-0.4226521999 0.9062919606 0)
(-0.2587874951 0.9659342795 0)
(0 0 -1)
(0 0 1)
(-0.2587874951 0.9659342795 0)
(0 0 -1)
(-0.08715413558 0.9961948387 0)
(0 0 1)
(-0.08715413558 0.9961948387 0)
(0 0 -1)
(0 1 0)
(-0 0 1)
(0 1 0)
(0 0 -1)
(0.08715722844 0.9961945681 -0)
(0 0 1)
(0.08715722844 0.9961945681 0)
(0 0 -1)
(0.2586604896 0.9659682972 -0)
(0 0 1)
(0.2586604896 0.9659682972 0)
(0.4228495054 0.9061999204 -0)
(0 0 -1)
(0 0 1)
(0.4228495054 0.9061999204 0)
(0 0 -1)
(0.5737339374 0.8190417383 -0)
(0 0 1)
(0.5737339374 0.8190417383 0)
(0 0 -1)
(0.7069064534 0.7073070522 -0)
(0 0 1)
(0.7069064534 0.7073070522 0)
(0.8190760335 0.5736849757 -0)
(0 0 -1)
(0.8190760335 0.5736849757 0)
(0.9063690789 0.4224867961 -0)
(0 0 1)
(0.9063690789 0.4224867961 0)
(0 0 -1)
(0.9658689822 0.259031097 -0)
(0 0 1)
(0.9658689822 0.259031097 0)
(0.9962226802 0.08683531213 -0)
(-0 -0 -1)
(0 0 1)
(0.9962226802 0.08683531213 0)
(0 0 -1)
(0.9962226802 -0.08683531213 0)
(0 0 1)
(0.9962226802 -0.08683531213 0)
(0.9658689822 -0.259031097 0)
(-0 0 -1)
(0 -0 1)
(0.9658689822 -0.259031097 0)
(0 0 -1)
(0.9063690789 -0.4224867961 0)
(0 0 1)
(0.9063690789 -0.4224867961 0)
(0.8190760335 -0.5736849757 0)
(0 0 -1)
(0 0 1)
(0.8190760335 -0.5736849757 0)
(0.7069064534 -0.7073070522 0)
(-0 0 -1)
(0 -0 1)
(0.7069064534 -0.7073070522 0)
(0 0 -1)
(0.5737339374 -0.8190417383 0)
(0 0 1)
(0.5737339374 -0.8190417383 0)
(0 0 -1)
(0.4228495054 -0.9061999204 0)
(0 0 1)
(0.4228495054 -0.9061999204 0)
(0.2586604896 -0.9659682972 0)
(0 0 -1)
(0 -0 1)
(0.2586604896 -0.9659682972 0)
(0 0 -1)
(0.08715722844 -0.9961945681 0)
(0 0 1)
(0.08715722844 -0.9961945681 0)
(0 0 -1)
(0 -1 0)
(0 0 1)
(0 -1 -0)
(0 0 -1)
)

// normal volume types

148
(
0
0
0
0
0
0
0
0
0
0
0
0
0
0
0
0
0
0
0
0
0
0
0
0
0
0
0
0
0
0
0
0
0
0
0
0
0
0
0
0
0
0
0
0
0
0
0
0
0
0
0
0
0
0
0
0
0
0
0
0
0
0
0
0
0
0
0
0
0
0
0
0
0
0
0
0
0
0
0
0
0
0
0
0
0
0
0
0
0
0
0
0
0
0
0
0
0
0
0
0
0
0
0
0
0
0
0
0
0
0
0
0
0
0
0
0
0
0
0
0
0
0
0
0
0
0
0
0
0
0
0
0
0
0
0
0
0
0
0
0
0
0
0
0
0
0
0
0
)

// normalDirections

92
(
2(1 -1)
2(1 -1)
2(1 -1)
2(1 -1)
2(1 -1)
2(1 -1)
2(1 -1)
2(1 -1)
2(1 -1)
2(1 -1)
2(1 -1)
2(1 -1)
2(1 -1)
2(1 -1)
2(1 -1)
2(1 -1)
2(1 -1)
2(1 -1)
2(1 -1)
2(1 -1)
2(1 -1)
2(1 -1)
2(1 -1)
2(1 -1)
2(1 -1)
2(1 -1)
2(1 -1)
2(1 -1)
2(1 -1)
2(1 -1)
2(1 -1)
2(1 -1)
2(1 -1)
2(1 -1)
2(1 -1)
2(1 -1)
2(1 -1)
2(1 -1)
2(1 -1)
2(1 -1)
2(1 -1)
2(1 -1)
2(1 -1)
2(1 -1)
2(1 -1)
2(1 -1)
2(1 -1)
2(1 -1)
2(1 -1)
2(1 -1)
2(1 -1)
2(1 -1)
2(1 -1)
2(1 -1)
2(1 -1)
2(1 -1)
2(1 -1)
2(1 -1)
2(1 -1)
2(1 -1)
2(1 -1)
2(1 -1)
2(1 -1)
2(1 -1)
2(1 -1)
2(1 -1)
2(1 -1)
2(1 -1)
2(1 -1)
2(1 -1)
2(1 -1)
2(1 -1)
2(1 -1)
2(1 -1)
2(1 -1)
2(1 -1)
2(1 -1)
2(1 -1)
2(1 -1)
2(1 -1)
2(1 -1)
2(1 -1)
2(1 -1)
2(1 -1)
2(1 -1)
2(1 -1)
2(1 -1)
2(1 -1)
2(1 -1)
2(1 -1)
2(1 -1)
2(1 -1)
)

// edgeNormals

92
(
2(0 1)
2(2 3)
2(4 5)
2(6 7)
2(6 8)
2(7 9)
2(10 11)
2(12 13)
2(14 15)
2(14 16)
2(15 13)
2(17 18)
2(19 20)
2(21 22)
2(21 18)
2(22 23)
2(24 25)
2(26 27)
2(28 29)
2(28 30)
2(29 31)
2(32 33)
2(34 35)
2(36 37)
2(36 38)
2(37 39)
2(40 41)
2(42 43)
2(44 45)
2(44 46)
2(45 47)
2(48 49)
2(50 51)
2(52 53)
2(52 54)
2(53 55)
2(56 57)
2(58 59)
2(60 61)
2(60 62)
2(61 63)
2(64 65)
2(66 67)
2(68 69)
2(70 71)
2(72 73)
2(74 75)
2(76 77)
2(78 79)
2(80 81)
2(80 82)
2(81 83)
2(84 85)
2(86 87)
2(88 89)
2(90 91)
2(92 93)
2(92 94)
2(93 91)
2(95 96)
2(95 94)
2(96 97)
2(98 99)
2(100 101)
2(102 103)
2(102 104)
2(103 105)
2(106 107)
2(108 109)
2(110 111)
2(110 112)
2(111 113)
2(114 115)
2(116 117)
2(118 119)
2(118 120)
2(119 121)
2(122 123)
2(122 124)
2(123 125)
2(126 127)
2(128 129)
2(130 131)
2(132 133)
2(134 135)
2(134 136)
2(135 137)
2(138 139)
2(140 141)
2(142 143)
2(144 145)
2(146 147)
)

// featurePointNormals

32
(
3(4 5 7)
3(6 7 8)
3(12 13 15)
3(14 15 16)
3(19 20 22)
3(21 22 18)
3(26 27 29)
3(28 29 30)
3(34 35 37)
3(36 37 38)
3(42 43 45)
3(44 45 46)
3(50 51 53)
3(52 53 54)
3(58 59 61)
3(60 61 62)
3(78 79 81)
3(80 81 82)
3(90 91 93)
3(92 93 94)
3(93 91 96)
3(95 96 94)
3(100 101 103)
3(102 103 104)
3(108 109 111)
3(110 111 112)
3(116 117 119)
3(118 119 120)
3(119 121 123)
3(122 123 124)
3(132 133 135)
3(134 135 136)
)

// featurePointEdges

32
(
3(3 5 2)
3(3 6 4)
3(8 10 7)
3(8 11 9)
3(13 15 12)
3(13 16 14)
3(18 20 17)
3(18 21 19)
3(23 25 22)
3(23 26 24)
3(28 30 27)
3(28 31 29)
3(33 35 32)
3(33 36 34)
3(38 40 37)
3(38 41 39)
3(49 51 48)
3(49 52 50)
3(56 58 55)
3(56 60 57)
3(59 61 58)
3(59 62 60)
3(64 66 63)
3(64 67 65)
3(69 71 68)
3(69 72 70)
3(74 76 73)
3(74 78 75)
3(77 79 76)
3(77 80 78)
3(84 86 83)
3(84 87 85)
)

// regionEdges
0()


// ************************************************************************* //
