/*--------------------------------*- C++ -*----------------------------------*\
| =========                 |                                                 |
| \\      /  F ield         | OpenFOAM: The Open Source CFD Toolbox           |
|  \\    /   O peration     | Version:  v1912                                 |
|   \\  /    A nd           | Website:  www.openfoam.com                      |
|    \\/     M anipulation  |                                                 |
\*---------------------------------------------------------------------------*/
FoamFile
{
    version     2.0;
    format      ascii;
    class       extendedFeatureEdgeMesh;
    location    "constant/extendedFeatureEdgeMesh";
    object      single_vanel.extendedFeatureEdgeMesh;
}
// * * * * * * * * * * * * * * * * * * * * * * * * * * * * * * * * * * * * * //

// points

76
(
(0.01740610041 -0.04179010168 1)
(0.01740610041 -0.04179010168 -1)
(0.01691929996 -0.04148359969 1)
(0.01691929996 -0.04148359969 -1)
(0.01614060067 -0.04064270109 1)
(0.01614060067 -0.04064270109 -1)
(0.0156964995 -0.03958610073 1)
(0.0156964995 -0.03958610073 -1)
(0.01561839972 -0.03901619837 1)
(0.01561839972 -0.03901619837 -1)
(0.01564049907 -0.03844140097 1)
(0.01564049907 -0.03844140097 -1)
(0.01628590003 -0.03685979918 1)
(0.01628590003 -0.03685979918 -1)
(0.01667230017 -0.03643370047 1)
(0.01667230017 -0.03643370047 -1)
(0.01818340085 -0.03563699871 1)
(0.01818340085 -0.03563699871 -1)
(0.01932810061 -0.03558100015 1)
(0.01932810061 -0.03558100015 -1)
(0.5458260179 -0.1985590011 1)
(0.5458260179 -0.1985590011 -1)
(0.5467389822 -0.1992519945 1)
(0.5467389822 -0.1992519945 -1)
(0.547360003 -0.2002159953 1)
(0.547360003 -0.2002159953 -1)
(0.5475360155 -0.200763002 1)
(0.5475360155 -0.200763002 -1)
(0.5475919843 -0.2019080073 1)
(0.5475919843 -0.2019080073 -1)
(0.5472530127 -0.2030030042 1)
(0.5472530127 -0.2030030042 -1)
(0.5465599895 -0.2039159983 1)
(0.5465599895 -0.2039159983 -1)
(0.5455960035 -0.2045370042 1)
(0.5455960035 -0.2045370042 -1)
(0.5444790125 -0.2047909945 1)
(0.5444790125 -0.2047909945 -1)
(0.01793869957 -0.04200740159 1)
(0.01793869957 -0.04200740159 -1)
(0.01649319939 -0.04109720141 1)
(0.01649319939 -0.04109720141 -1)
(0.01587240025 -0.04013380036 1)
(0.01587240025 -0.04013380036 -1)
(0.0157621 -0.03787919879 1)
(0.0157621 -0.03787919879 -1)
(0.0159793999 -0.03734660149 1)
(0.0159793999 -0.03734660149 -1)
(0.01712689921 -0.0360811986 1)
(0.01712689921 -0.0360811986 -1)
(0.01763569936 -0.03581289947 1)
(0.01763569936 -0.03581289947 -1)
(0.01875329949 -0.03555899858 1)
(0.01875329949 -0.03555899858 -1)
(0.01989030093 -0.03570260108 1)
(0.01989030093 -0.03570260108 -1)
(0.5452929735 -0.1983419955 1)
(0.5452929735 -0.1983419955 -1)
(0.5463129878 -0.1988659948 1)
(0.5463129878 -0.1988659948 -1)
(0.5470910072 -0.1997070014 1)
(0.5470910072 -0.1997070014 -1)
(0.5476139784 -0.2013330013 1)
(0.5476139784 -0.2013330013 -1)
(0.5474699736 -0.2024700046 1)
(0.5474699736 -0.2024700046 -1)
(0.5469459891 -0.2034900039 1)
(0.5469459891 -0.2034900039 -1)
(0.5461050272 -0.2042679936 1)
(0.5461050272 -0.2042679936 -1)
(0.5450490117 -0.2047120035 1)
(0.5450490117 -0.2047120035 -1)
(0.5439040065 -0.204768002 1)
(0.5439040065 -0.204768002 -1)
(0.5433419943 -0.2046470046 1)
(0.5433419943 -0.2046470046 -1)
)

// edges

95
(
(38 0)
(0 1)
(1 39)
(0 2)
(2 3)
(3 1)
(2 40)
(41 3)
(40 4)
(4 5)
(5 41)
(4 42)
(43 5)
(42 6)
(6 7)
(7 43)
(6 8)
(8 9)
(9 7)
(8 10)
(10 11)
(11 9)
(10 44)
(45 11)
(44 46)
(47 45)
(46 12)
(12 13)
(13 47)
(12 14)
(14 15)
(15 13)
(14 48)
(49 15)
(48 50)
(51 49)
(50 16)
(16 17)
(17 51)
(16 52)
(53 17)
(52 18)
(18 19)
(19 53)
(18 54)
(55 19)
(54 56)
(57 55)
(56 20)
(20 21)
(21 57)
(20 58)
(59 21)
(58 22)
(22 23)
(23 59)
(22 60)
(61 23)
(60 24)
(24 25)
(25 61)
(24 26)
(26 27)
(27 25)
(26 62)
(63 27)
(62 28)
(28 29)
(29 63)
(28 64)
(65 29)
(64 30)
(30 31)
(31 65)
(30 66)
(67 31)
(66 32)
(32 33)
(33 67)
(32 68)
(69 33)
(68 34)
(34 35)
(35 69)
(34 70)
(71 35)
(70 36)
(36 37)
(37 71)
(36 72)
(73 37)
(72 74)
(75 73)
(74 38)
(39 75)
)

// concaveStart mixedStart nonFeatureStart
38 38 38
// internalStart flatStart openStart multipleStart
95 95 95 95
// normals

148
(
(-0.3777665922 -0.9259008596 0)
(0 0 1)
(-0.3777665922 -0.9259008596 0)
(-0.5328107792 -0.8462344082 0)
(0 0 -1)
(0 0 1)
(-0.5328107792 -0.8462344082 0)
(-0.6717529173 -0.7407752818 0)
(0 0 -1)
(0 0 1)
(-0.6717529173 -0.7407752818 0)
(0 0 -1)
(-0.7901111114 -0.6129636462 0)
(0 0 1)
(-0.7901111114 -0.6129636462 0)
(-0.8846616486 -0.4662335976 0)
(0 0 -1)
(-0.8846616486 -0.4662335976 0)
(0 0 -1)
(-0.9521022468 -0.3057798417 0)
(0 0 1)
(-0.9521022468 -0.3057798417 0)
(-0.9907401562 -0.1357716574 0)
(0 0 1)
(-0.9907401562 -0.1357716574 0)
(-0.9992617246 0.03841882074 0)
(0 0 -1)
(0 0 1)
(-0.9992617246 0.03841882074 0)
(-0.9773984709 0.2114053665 0)
(0 -0 -1)
(0 0 1)
(-0.9773984709 0.2114053665 0)
(0 -0 -1)
(-0.9259003975 0.3777677248 0)
(0 0 1)
(-0.9259003975 0.3777677248 0)
(0 0 -1)
(-0.8462367873 0.5328070005 0)
(0 0 1)
(-0.8462367873 0.5328070005 0)
(-0.7407722092 0.6717563056 0)
(0 0 -1)
(-0 0 1)
(-0.7407722092 0.6717563056 0)
(-0.6127754045 0.7902571124 0)
(0 0 -1)
(-0 0 1)
(-0.6127754045 0.7902571124 0)
(0 0 -1)
(-0.4664400279 0.8845528251 0)
(0 0 1)
(-0.4664400279 0.8845528251 0)
(0 0 -1)
(-0.305778899 0.9521025496 0)
(0 -0 1)
(-0.305778899 0.9521025496 0)
(-0.1356024769 0.9907633261 0)
(0 0 -1)
(0 0 1)
(-0.1356024769 0.9907633261 0)
(0 0 -1)
(0.03824882053 0.9992682461 -0)
(0 0 1)
(0.03824882053 0.9992682461 0)
(0.2114060356 0.9773983262 -0)
(0 -0 -1)
(0 0 1)
(0.2114060356 0.9773983262 0)
(0 0 -1)
(0.2957082142 0.9552783113 0)
(0 0 1)
(0.2957082142 0.9552783113 0)
(0 0 -1)
(0.3770575461 0.9261898331 -0)
(0 0 1)
(0.3770575461 0.9261898331 0)
(0.5332896483 0.8459327107 -0)
(0 0 -1)
(0 0 1)
(0.5332896483 0.8459327107 0)
(0 0 -1)
(0.6714642724 0.7410369295 -0)
(0 0 1)
(0.6714642724 0.7410369295 0)
(0.7909242768 0.6119140368 -0)
(0 0 -1)
(0 0 1)
(0.7909242768 0.6119140368 0)
(0 0 -1)
(0.884126408 0.4672477873 -0)
(0 0 1)
(0.884126408 0.4672477873 0)
(0.9519327316 0.306307157 -0)
(0 0 -1)
(0.9519327316 0.306307157 0)
(0.9907752367 0.135515425 -0)
(0 0 1)
(0.9907752367 0.135515425 0)
(0 0 -1)
(0.9992692616 -0.03822228232 0)
(0 -0 1)
(0.9992692616 -0.03822228232 0)
(0.977235024 -0.2121596282 0)
(-0 0 -1)
(0 0 1)
(0.977235024 -0.2121596282 0)
(0 0 -1)
(0.9262059167 -0.3770180365 0)
(0 0 1)
(0.9262059167 -0.3770180365 0)
(0.8459240795 -0.5333033393 0)
(-0 0 -1)
(0 -0 1)
(0.8459240795 -0.5333033393 0)
(0 0 -1)
(0.7410369295 -0.6714642724 0)
(0 0 1)
(0.7410369295 -0.6714642724 0)
(0.6119192387 -0.7909202522 0)
(0 0 -1)
(0 0 1)
(0.6119192387 -0.7909202522 0)
(-0 0 -1)
(0.4672466347 -0.8841270171 0)
(0 -0 1)
(0.4672466347 -0.8841270171 0)
(0.3047154734 -0.9524434263 0)
(0 0 -1)
(0 0 1)
(0.3047154734 -0.9524434263 0)
(0 -0 -1)
(0.1372691518 -0.9905337854 0)
(0 0 1)
(0.1372691518 -0.9905337854 0)
(-0.03995459492 -0.9992014964 0)
(0 0 -1)
(-0 0 1)
(-0.03995459492 -0.9992014964 0)
(0 0 -1)
(-0.2104707108 -0.9776001636 0)
(0 0 1)
(-0.2104707108 -0.9776001636 0)
(0 0 -1)
(-0.2957082408 -0.9552783031 -0)
(0 0 1)
(-0.2957082408 -0.9552783031 -0)
(0 0 -1)
)

// normal volume types

148
(
0
0
0
0
0
0
0
0
0
0
0
0
0
0
0
0
0
0
0
0
0
0
0
0
0
0
0
0
0
0
0
0
0
0
0
0
0
0
0
0
0
0
0
0
0
0
0
0
0
0
0
0
0
0
0
0
0
0
0
0
0
0
0
0
0
0
0
0
0
0
0
0
0
0
0
0
0
0
0
0
0
0
0
0
0
0
0
0
0
0
0
0
0
0
0
0
0
0
0
0
0
0
0
0
0
0
0
0
0
0
0
0
0
0
0
0
0
0
0
0
0
0
0
0
0
0
0
0
0
0
0
0
0
0
0
0
0
0
0
0
0
0
0
0
0
0
0
0
)

// normalDirections

95
(
2(1 -1)
2(1 -1)
2(1 -1)
2(1 -1)
2(1 -1)
2(1 -1)
2(1 -1)
2(1 -1)
2(1 -1)
2(1 -1)
2(1 -1)
2(1 -1)
2(1 -1)
2(1 -1)
2(1 -1)
2(1 -1)
2(1 -1)
2(1 -1)
2(1 -1)
2(1 -1)
2(1 -1)
2(1 -1)
2(1 -1)
2(1 -1)
2(1 -1)
2(1 -1)
2(1 -1)
2(1 -1)
2(1 -1)
2(1 -1)
2(1 -1)
2(1 -1)
2(1 -1)
2(1 -1)
2(1 -1)
2(1 -1)
2(1 -1)
2(1 -1)
2(1 -1)
2(1 -1)
2(1 -1)
2(1 -1)
2(1 -1)
2(1 -1)
2(1 -1)
2(1 -1)
2(1 -1)
2(1 -1)
2(1 -1)
2(1 -1)
2(1 -1)
2(1 -1)
2(1 -1)
2(1 -1)
2(1 -1)
2(1 -1)
2(1 -1)
2(1 -1)
2(1 -1)
2(1 -1)
2(1 -1)
2(1 -1)
2(1 -1)
2(1 -1)
2(1 -1)
2(1 -1)
2(1 -1)
2(1 -1)
2(1 -1)
2(1 -1)
2(1 -1)
2(1 -1)
2(1 -1)
2(1 -1)
2(1 -1)
2(1 -1)
2(1 -1)
2(1 -1)
2(1 -1)
2(1 -1)
2(1 -1)
2(1 -1)
2(1 -1)
2(1 -1)
2(1 -1)
2(1 -1)
2(1 -1)
2(1 -1)
2(1 -1)
2(1 -1)
2(1 -1)
2(1 -1)
2(1 -1)
2(1 -1)
2(1 -1)
)

// edgeNormals

95
(
2(0 1)
2(2 3)
2(2 4)
2(3 5)
2(6 7)
2(6 8)
2(7 9)
2(10 11)
2(12 13)
2(14 15)
2(14 16)
2(15 13)
2(17 18)
2(19 20)
2(21 22)
2(21 18)
2(22 23)
2(24 25)
2(24 26)
2(25 27)
2(28 29)
2(28 30)
2(29 31)
2(32 33)
2(34 35)
2(36 37)
2(38 39)
2(40 41)
2(40 42)
2(41 43)
2(44 45)
2(44 46)
2(45 47)
2(48 49)
2(50 51)
2(52 53)
2(54 55)
2(56 57)
2(56 58)
2(57 59)
2(60 61)
2(62 63)
2(64 65)
2(64 66)
2(65 67)
2(68 69)
2(70 71)
2(72 73)
2(74 75)
2(76 77)
2(76 78)
2(77 79)
2(80 81)
2(82 83)
2(84 85)
2(84 86)
2(85 87)
2(88 89)
2(90 91)
2(92 93)
2(92 94)
2(93 91)
2(95 96)
2(95 94)
2(96 97)
2(98 99)
2(100 101)
2(102 103)
2(102 104)
2(103 105)
2(106 107)
2(108 109)
2(110 111)
2(110 112)
2(111 113)
2(114 115)
2(116 117)
2(118 119)
2(118 120)
2(119 121)
2(122 123)
2(124 125)
2(126 127)
2(126 128)
2(127 129)
2(130 131)
2(132 133)
2(134 135)
2(134 136)
2(135 137)
2(138 139)
2(140 141)
2(142 143)
2(144 145)
2(146 147)
)

// featurePointNormals

38
(
3(0 1 3)
3(2 3 4)
3(3 5 7)
3(6 7 8)
3(12 13 15)
3(14 15 16)
3(19 20 22)
3(21 22 18)
3(22 23 25)
3(24 25 26)
3(25 27 29)
3(28 29 30)
3(38 39 41)
3(40 41 42)
3(41 43 45)
3(44 45 46)
3(54 55 57)
3(56 57 58)
3(62 63 65)
3(64 65 66)
3(74 75 77)
3(76 77 78)
3(82 83 85)
3(84 85 86)
3(90 91 93)
3(92 93 94)
3(93 91 96)
3(95 96 94)
3(100 101 103)
3(102 103 104)
3(108 109 111)
3(110 111 112)
3(116 117 119)
3(118 119 120)
3(124 125 127)
3(126 127 128)
3(132 133 135)
3(134 135 136)
)

// featurePointEdges

38
(
3(1 3 0)
3(1 5 2)
3(4 6 3)
3(4 7 5)
3(9 11 8)
3(9 12 10)
3(14 16 13)
3(14 18 15)
3(17 19 16)
3(17 21 18)
3(20 22 19)
3(20 23 21)
3(27 29 26)
3(27 31 28)
3(30 32 29)
3(30 33 31)
3(37 39 36)
3(37 40 38)
3(42 44 41)
3(42 45 43)
3(49 51 48)
3(49 52 50)
3(54 56 53)
3(54 57 55)
3(59 61 58)
3(59 63 60)
3(62 64 61)
3(62 65 63)
3(67 69 66)
3(67 70 68)
3(72 74 71)
3(72 75 73)
3(77 79 76)
3(77 80 78)
3(82 84 81)
3(82 85 83)
3(87 89 86)
3(87 90 88)
)

// regionEdges
0()


// ************************************************************************* //
