/*--------------------------------*- C++ -*----------------------------------*\
| =========                 |                                                 |
| \\      /  F ield         | OpenFOAM: The Open Source CFD Toolbox           |
|  \\    /   O peration     | Version:  v1912                                 |
|   \\  /    A nd           | Website:  www.openfoam.com                      |
|    \\/     M anipulation  |                                                 |
\*---------------------------------------------------------------------------*/
FoamFile
{
    version     2.0;
    format      ascii;
    class       polyBoundaryMesh;
    location    "constant/polyMesh";
    object      boundary;
}
// * * * * * * * * * * * * * * * * * * * * * * * * * * * * * * * * * * * * * //

10
(
    inlet1
    {
        type            inlet;
        nFaces          0;
        startFace       10940;
        faces           ( ( 0 4 7 3 ) );
    }
    outlet1
    {
        type            outlet;
        nFaces          0;
        startFace       10940;
        faces           ( ( 1 5 6 2 ) );
    }
    front
    {
        type            empty;
        inGroups        1(empty);
        nFaces          5564;
        startFace       10940;
    }
    back
    {
        type            empty;
        inGroups        1(empty);
        nFaces          5564;
        startFace       16504;
    }
    tbwall
    {
        type            wall;
        inGroups        1(wall);
        nFaces          486;
        startFace       22068;
    }
    inlet
    {
        type            inlet;
        nFaces          0;
        startFace       22554;
        faces           ( ( 0 4 7 3 ) );
    }
    outlet
    {
        type            outlet;
        nFaces          0;
        startFace       22554;
        faces           ( ( 0 1 5 4 ) );
    }
    twalls
    {
        type            wall;
        inGroups        1(wall);
        nFaces          367;
        startFace       22554;
    }
    procBoundary3to0
    {
        type            processor;
        inGroups        1(processor);
        nFaces          82;
        startFace       22921;
        matchTolerance  0.0001;
        transform       unknown;
        myProcNo        3;
        neighbProcNo    0;
    }
    procBoundary3to2
    {
        type            processor;
        inGroups        1(processor);
        nFaces          94;
        startFace       23003;
        matchTolerance  0.0001;
        transform       unknown;
        myProcNo        3;
        neighbProcNo    2;
    }
)

// ************************************************************************* //
