/*--------------------------------*- C++ -*----------------------------------*\
| =========                 |                                                 |
| \\      /  F ield         | OpenFOAM: The Open Source CFD Toolbox           |
|  \\    /   O peration     | Version:  v1912                                 |
|   \\  /    A nd           | Website:  www.openfoam.com                      |
|    \\/     M anipulation  |                                                 |
\*---------------------------------------------------------------------------*/
FoamFile
{
    version     2.0;
    format      ascii;
    class       polyBoundaryMesh;
    location    "constant/polyMesh";
    object      boundary;
}
// * * * * * * * * * * * * * * * * * * * * * * * * * * * * * * * * * * * * * //

5
(
    inlet
    {
        type            inlet;
        nFaces          33;
        startFace       15210;
        faces           ( ( 0 4 7 3 ) );
    }
    outlet
    {
        type            outlet;
        nFaces          98;
        startFace       15243;
        faces           ( ( 2 6 5 1 ) );
    }
    front
    {
        type            empty;
        inGroups        1(empty);
        nFaces          7777;
        startFace       15341;
    }
    back
    {
        type            empty;
        inGroups        1(empty);
        nFaces          7777;
        startFace       23118;
    }
    dfwall
    {
        type            wall;
        inGroups        1(wall);
        nFaces          1854;
        startFace       30895;
    }
)

// ************************************************************************* //
