/*--------------------------------*- C++ -*----------------------------------*\
| =========                 |                                                 |
| \\      /  F ield         | OpenFOAM: The Open Source CFD Toolbox           |
|  \\    /   O peration     | Version:  v1912                                 |
|   \\  /    A nd           | Website:  www.openfoam.com                      |
|    \\/     M anipulation  |                                                 |
\*---------------------------------------------------------------------------*/
FoamFile
{
    version     2.0;
    format      ascii;
    class       polyBoundaryMesh;
    location    "constant/polyMesh";
    object      boundary;
}
// * * * * * * * * * * * * * * * * * * * * * * * * * * * * * * * * * * * * * //

8
(
    inlet
    {
        type            inlet;
        nFaces          21;
        startFace       14386;
        faces           ( ( 0 4 7 3 ) );
    }
    outlet
    {
        type            outlet;
        nFaces          50;
        startFace       14407;
        faces           ( ( 2 6 5 1 ) );
    }
    front
    {
        type            empty;
        inGroups        1(empty);
        nFaces          7268;
        startFace       14457;
    }
    back
    {
        type            empty;
        inGroups        1(empty);
        nFaces          7268;
        startFace       21725;
    }
    defaultFaces
    {
        type            empty;
        inGroups        1(empty);
        nFaces          0;
        startFace       28993;
    }
    dfwall
    {
        type            wall;
        inGroups        1(wall);
        nFaces          1760;
        startFace       28993;
    }
    procBoundary2to0
    {
        type            processor;
        inGroups        1(processor);
        nFaces          13;
        startFace       30753;
        matchTolerance  0.0001;
        transform       unknown;
        myProcNo        2;
        neighbProcNo    0;
    }
    procBoundary2to3
    {
        type            processor;
        inGroups        1(processor);
        nFaces          12;
        startFace       30766;
        matchTolerance  0.0001;
        transform       unknown;
        myProcNo        2;
        neighbProcNo    3;
    }
)

// ************************************************************************* //
