/*--------------------------------*- C++ -*----------------------------------*\
| =========                 |                                                 |
| \\      /  F ield         | OpenFOAM: The Open Source CFD Toolbox           |
|  \\    /   O peration     | Version:  v1912                                 |
|   \\  /    A nd           | Website:  www.openfoam.com                      |
|    \\/     M anipulation  |                                                 |
\*---------------------------------------------------------------------------*/
FoamFile
{
    version     2.0;
    format      ascii;
    class       polyBoundaryMesh;
    location    "constant/polyMesh";
    object      boundary;
}
// * * * * * * * * * * * * * * * * * * * * * * * * * * * * * * * * * * * * * //

10
(
    inlet
    {
        type            inlet;
        nFaces          50;
        startFace       7196;
        faces           ( ( 0 4 7 3 ) );
    }
    outlet
    {
        type            outlet;
        nFaces          0;
        startFace       7246;
        faces           ( ( 2 6 5 1 ) );
    }
    wall
    {
        type            wall;
        inGroups        1(wall);
        nFaces          51;
        startFace       7246;
    }
    front
    {
        type            empty;
        inGroups        1(empty);
        nFaces          3673;
        startFace       7297;
    }
    back
    {
        type            empty;
        inGroups        1(empty);
        nFaces          3673;
        startFace       10970;
    }
    vanem
    {
        type            wall;
        inGroups        1(wall);
        nFaces          183;
        startFace       14643;
    }
    vaneu
    {
        type            wall;
        inGroups        1(wall);
        nFaces          0;
        startFace       14826;
    }
    vanel
    {
        type            wall;
        inGroups        1(wall);
        nFaces          371;
        startFace       14826;
    }
    procBoundary0to1
    {
        type            processor;
        inGroups        1(processor);
        nFaces          58;
        startFace       15197;
        matchTolerance  0.0001;
        transform       unknown;
        myProcNo        0;
        neighbProcNo    1;
    }
    procBoundary0to2
    {
        type            processor;
        inGroups        1(processor);
        nFaces          10;
        startFace       15255;
        matchTolerance  0.0001;
        transform       unknown;
        myProcNo        0;
        neighbProcNo    2;
    }
)

// ************************************************************************* //
