/*--------------------------------*- C++ -*----------------------------------*\
| =========                 |                                                 |
| \\      /  F ield         | OpenFOAM: The Open Source CFD Toolbox           |
|  \\    /   O peration     | Version:  v1912                                 |
|   \\  /    A nd           | Website:  www.openfoam.com                      |
|    \\/     M anipulation  |                                                 |
\*---------------------------------------------------------------------------*/
FoamFile
{
    version     2.0;
    format      ascii;
    class       extendedFeatureEdgeMesh;
    location    "constant/extendedFeatureEdgeMesh";
    object      vane4.extendedFeatureEdgeMesh;
}
// * * * * * * * * * * * * * * * * * * * * * * * * * * * * * * * * * * * * * //

// points

224
(
(0.0656656 0.0179904 -1)
(0.0656656 0.0179904 1)
(0.0864826 -0.0050548 1)
(0.0864826 -0.0050548 -1)
(0.0855844 -0.0057074 1)
(0.0851893 -0.0056448 1)
(0.0855844 -0.0057074 -1)
(0.0851893 -0.0056448 -1)
(0.0665039 0.0167876 -1)
(0.0665039 0.0167876 1)
(0.0656726 0.0175905 1)
(0.0656726 0.0175905 -1)
(0.0663051 0.0179916 1)
(0.0663051 0.0179916 -1)
(0.0669443 0.017973 1)
(0.0669443 0.017973 -1)
(0.0675827 0.0179346 1)
(0.0675827 0.0179346 -1)
(0.0682195 0.0178763 1)
(0.0682195 0.0178763 -1)
(0.0688542 0.0177984 1)
(0.0688542 0.0177984 -1)
(0.0694862 0.0177008 1)
(0.0694862 0.0177008 -1)
(0.0701149 0.0175836 1)
(0.0701149 0.0175836 -1)
(0.0707396 0.0174469 1)
(0.0707396 0.0174469 -1)
(0.0713598 0.0172909 1)
(0.0713598 0.0172909 -1)
(0.0719749 0.0171158 1)
(0.0719749 0.0171158 -1)
(0.0725842 0.0169216 1)
(0.0725842 0.0169216 -1)
(0.0731872 0.0167087 1)
(0.0731872 0.0167087 -1)
(0.0737833 0.0164771 1)
(0.0737833 0.0164771 -1)
(0.0743719 0.0162271 1)
(0.0743719 0.0162271 -1)
(0.0749525 0.015959 1)
(0.0749525 0.015959 -1)
(0.0755244 0.015673 1)
(0.0755244 0.015673 -1)
(0.0760873 0.0153694 1)
(0.0760873 0.0153694 -1)
(0.0766404 0.0150484 1)
(0.0766404 0.0150484 -1)
(0.0771833 0.0147105 1)
(0.0771833 0.0147105 -1)
(0.0777155 0.0143558 1)
(0.0777155 0.0143558 -1)
(0.0782364 0.0139849 1)
(0.0782364 0.0139849 -1)
(0.0787455 0.0135979 1)
(0.0787455 0.0135979 -1)
(0.0792424 0.0131953 1)
(0.0792424 0.0131953 -1)
(0.0797265 0.0127775 1)
(0.0797265 0.0127775 -1)
(0.0801974 0.0123448 1)
(0.0801974 0.0123448 -1)
(0.0806547 0.0118978 1)
(0.0806547 0.0118978 -1)
(0.0810979 0.0114368 1)
(0.0810979 0.0114368 -1)
(0.0815266 0.0109622 1)
(0.0815266 0.0109622 -1)
(0.0819403 0.0104746 1)
(0.0819403 0.0104746 -1)
(0.0823387 0.00997435 1)
(0.0823387 0.00997435 -1)
(0.0827214 0.009462 1)
(0.0827214 0.009462 -1)
(0.083088 0.00893801 1)
(0.083088 0.00893801 -1)
(0.0834382 0.0084029 1)
(0.0834382 0.0084029 -1)
(0.0837716 0.00785718 1)
(0.0837716 0.00785718 -1)
(0.0840878 0.00730137 1)
(0.0840878 0.00730137 -1)
(0.0843867 0.00673601 1)
(0.0843867 0.00673601 -1)
(0.0846679 0.00616165 1)
(0.0846679 0.00616165 -1)
(0.0849312 0.00557884 1)
(0.0849312 0.00557884 -1)
(0.0851762 0.00498815 1)
(0.0851762 0.00498815 -1)
(0.0854028 0.00439014 1)
(0.0854028 0.00439014 -1)
(0.0856107 0.00378537 1)
(0.0856107 0.00378537 -1)
(0.0857997 0.00317445 1)
(0.0857997 0.00317445 -1)
(0.0859697 0.00255796 1)
(0.0859697 0.00255796 -1)
(0.0861204 0.00193649 1)
(0.0861204 0.00193649 -1)
(0.0862518 0.00131065 1)
(0.0862518 0.00131065 -1)
(0.0863637 0.00068104 1)
(0.0863637 0.00068104 -1)
(0.0864561 4.82001e-05 1)
(0.0864561 4.82001e-05 -1)
(0.0865287 -0.00058719 1)
(0.0865287 -0.00058719 -1)
(0.0865816 -0.00122444 1)
(0.0865816 -0.00122444 -1)
(0.0866147 -0.00186308 1)
(0.0866147 -0.00186308 -1)
(0.086628 -0.0025025 1)
(0.086628 -0.0025025 -1)
(0.0866213 -0.00314191 1)
(0.0866213 -0.00314191 -1)
(0.0865949 -0.0037809 1)
(0.0865949 -0.0037809 -1)
(0.0865486 -0.0044187 1)
(0.0865486 -0.0044187 -1)
(0.085277 -0.0050275 -1)
(0.085277 -0.0050275 1)
(0.0853447 -0.0044076 -1)
(0.0853447 -0.0044076 1)
(0.0853925 -0.003786 -1)
(0.0853925 -0.003786 1)
(0.0854203 -0.00316312 -1)
(0.0854203 -0.00316312 1)
(0.085428 -0.00253961 -1)
(0.085428 -0.00253961 1)
(0.0854158 -0.00191624 -1)
(0.0854158 -0.00191624 1)
(0.0853835 -0.00129358 -1)
(0.0853835 -0.00129358 1)
(0.0853313 -0.00067227 -1)
(0.0853313 -0.00067227 1)
(0.085259 -5.29499e-05 -1)
(0.085259 -5.29499e-05 1)
(0.085167 0.00056372 -1)
(0.085167 0.00056372 1)
(0.0850551 0.00117709 -1)
(0.0850551 0.00117709 1)
(0.0849236 0.00178658 -1)
(0.0849236 0.00178658 1)
(0.0847726 0.00239153 -1)
(0.0847726 0.00239153 1)
(0.0846023 0.0029913 -1)
(0.0846023 0.0029913 1)
(0.0844127 0.0035853 -1)
(0.0844127 0.0035853 1)
(0.0842042 0.0041729 -1)
(0.0842042 0.0041729 1)
(0.0839769 0.0047535 -1)
(0.0839769 0.0047535 1)
(0.0837311 0.00532649 -1)
(0.0837311 0.00532649 1)
(0.0834669 0.00589129 -1)
(0.0834669 0.00589129 1)
(0.0831848 0.00644731 -1)
(0.0831848 0.00644731 1)
(0.0828849 0.00699397 -1)
(0.0828849 0.00699397 1)
(0.0825677 0.00753072 -1)
(0.0825677 0.00753072 1)
(0.0822333 0.008057 -1)
(0.0822333 0.008057 1)
(0.0818822 0.00857226 -1)
(0.0818822 0.00857226 1)
(0.0815148 0.00907599 -1)
(0.0815148 0.00907599 1)
(0.0811313 0.00956763 -1)
(0.0811313 0.00956763 1)
(0.0807323 0.0100467 -1)
(0.0807323 0.0100467 1)
(0.080318 0.0105127 -1)
(0.080318 0.0105127 1)
(0.079889 0.0109652 -1)
(0.079889 0.0109652 1)
(0.0794457 0.0114036 -1)
(0.0794457 0.0114036 1)
(0.0789885 0.0118276 -1)
(0.0789885 0.0118276 1)
(0.078518 0.0122367 -1)
(0.078518 0.0122367 1)
(0.0780345 0.0126304 -1)
(0.0780345 0.0126304 1)
(0.0775386 0.0130084 -1)
(0.0775386 0.0130084 1)
(0.0770309 0.0133702 -1)
(0.0770309 0.0133702 1)
(0.0765118 0.0137156 -1)
(0.0765118 0.0137156 1)
(0.0759818 0.0140441 -1)
(0.0759818 0.0140441 1)
(0.0754416 0.0143554 -1)
(0.0754416 0.0143554 1)
(0.0748917 0.0146492 -1)
(0.0748917 0.0146492 1)
(0.0743326 0.0149252 -1)
(0.0743326 0.0149252 1)
(0.0737649 0.0151831 -1)
(0.0737649 0.0151831 1)
(0.0731892 0.0154225 -1)
(0.0731892 0.0154225 1)
(0.0726061 0.0156434 -1)
(0.0726061 0.0156434 1)
(0.0720163 0.0158454 -1)
(0.0720163 0.0158454 1)
(0.0714202 0.0160284 -1)
(0.0714202 0.0160284 1)
(0.0708186 0.0161921 -1)
(0.0708186 0.0161921 1)
(0.070212 0.0163365 -1)
(0.070212 0.0163365 1)
(0.0696011 0.0164612 -1)
(0.0696011 0.0164612 1)
(0.0689865 0.0165662 -1)
(0.0689865 0.0165662 1)
(0.0683689 0.0166514 -1)
(0.0683689 0.0166514 1)
(0.0677488 0.0167169 -1)
(0.0677488 0.0167169 1)
(0.0671269 0.0167622 -1)
(0.0671269 0.0167622 1)
)

// edges

230
(
(0 1)
(1 12)
(13 0)
(12 14)
(15 13)
(14 16)
(17 15)
(16 18)
(19 17)
(18 20)
(21 19)
(20 22)
(23 21)
(22 24)
(25 23)
(24 26)
(27 25)
(26 28)
(29 27)
(28 30)
(31 29)
(30 32)
(33 31)
(32 34)
(35 33)
(34 36)
(37 35)
(36 38)
(39 37)
(38 40)
(41 39)
(40 42)
(43 41)
(42 44)
(45 43)
(44 46)
(47 45)
(46 48)
(49 47)
(48 50)
(51 49)
(50 52)
(53 51)
(52 54)
(55 53)
(54 56)
(57 55)
(56 58)
(59 57)
(58 60)
(61 59)
(60 62)
(63 61)
(62 64)
(65 63)
(64 66)
(67 65)
(66 68)
(69 67)
(68 70)
(71 69)
(70 72)
(73 71)
(72 74)
(75 73)
(74 76)
(77 75)
(76 78)
(79 77)
(78 80)
(81 79)
(80 82)
(83 81)
(82 84)
(85 83)
(84 86)
(87 85)
(86 88)
(89 87)
(88 90)
(91 89)
(90 92)
(93 91)
(92 94)
(95 93)
(94 96)
(97 95)
(96 98)
(99 97)
(98 100)
(101 99)
(100 102)
(103 101)
(102 104)
(105 103)
(104 106)
(107 105)
(106 108)
(109 107)
(108 110)
(111 109)
(110 112)
(113 111)
(112 114)
(115 113)
(114 116)
(117 115)
(116 118)
(119 117)
(118 2)
(3 119)
(2 3)
(4 5)
(6 4)
(5 7)
(7 6)
(120 7)
(5 121)
(122 120)
(121 123)
(124 122)
(123 125)
(126 124)
(125 127)
(128 126)
(127 129)
(130 128)
(129 131)
(132 130)
(131 133)
(134 132)
(133 135)
(136 134)
(135 137)
(138 136)
(137 139)
(140 138)
(139 141)
(142 140)
(141 143)
(144 142)
(143 145)
(146 144)
(145 147)
(148 146)
(147 149)
(150 148)
(149 151)
(152 150)
(151 153)
(154 152)
(153 155)
(156 154)
(155 157)
(158 156)
(157 159)
(160 158)
(159 161)
(162 160)
(161 163)
(164 162)
(163 165)
(166 164)
(165 167)
(168 166)
(167 169)
(170 168)
(169 171)
(172 170)
(171 173)
(174 172)
(173 175)
(176 174)
(175 177)
(178 176)
(177 179)
(180 178)
(179 181)
(182 180)
(181 183)
(184 182)
(183 185)
(186 184)
(185 187)
(188 186)
(187 189)
(190 188)
(189 191)
(192 190)
(191 193)
(194 192)
(193 195)
(196 194)
(195 197)
(198 196)
(197 199)
(200 198)
(199 201)
(202 200)
(201 203)
(204 202)
(203 205)
(206 204)
(205 207)
(208 206)
(207 209)
(210 208)
(209 211)
(212 210)
(211 213)
(214 212)
(213 215)
(216 214)
(215 217)
(218 216)
(217 219)
(220 218)
(219 221)
(222 220)
(221 223)
(8 222)
(223 9)
(9 8)
(10 1)
(11 10)
(0 11)
(8 11)
(3 6)
(10 9)
(4 2)
)

// concaveStart mixedStart nonFeatureStart
12 12 12
// internalStart flatStart openStart multipleStart
230 230 230 230
// normals

444
(
(-0.00187867 0.999998 0)
(-0.999847 -0.017492 0)
(-0 0 1)
(-0.00187867 0.999998 0)
(0 0 -1)
(0.0290871 0.999577 -0)
(0 0 1)
(0.0290871 0.999577 0)
(0 0 -1)
(0.0600427 0.998196 -0)
(0 0 1)
(0.0600427 0.998196 0)
(0 0 -1)
(0.0911713 0.995835 -0)
(0 0 1)
(0.0911713 0.995835 0)
(0 0 -1)
(0.12182 0.992552 -0)
(0 0 1)
(0.12182 0.992552 0)
(0 0 -1)
(0.152619 0.988285 -0)
(0 0 1)
(0.152619 0.988285 0)
(0 0 -1)
(0.183261 0.983064 -0)
(0 -0 1)
(0.183261 0.983064 0)
(0 0 -1)
(0.213768 0.976884 -0)
(0 0 1)
(0.213768 0.976884 0)
(0 0 -1)
(0.243933 0.969792 -0)
(0 0 1)
(0.243933 0.969792 0)
(0 0 -1)
(0.273789 0.96179 -0)
(0 0 1)
(0.273789 0.96179 0)
(0 0 -1)
(0.303677 0.952775 -0)
(0 0 1)
(0.303677 0.952775 0)
(0 0 -1)
(0.332924 0.942954 -0)
(0 0 1)
(0.332924 0.942954 0)
(0 0 -1)
(0.362152 0.932119 -0)
(0 0 1)
(0.362152 0.932119 0)
(0 0 -1)
(0.390938 0.920417 -0)
(0 0 1)
(0.390938 0.920417 0)
(0 0 -1)
(0.419226 0.907882 -0)
(0 0 1)
(0.419226 0.907882 0)
(0 0 -1)
(0.447277 0.894396 -0)
(0 0 1)
(0.447277 0.894396 0)
(0 0 -1)
(0.474702 0.880147 -0)
(0 0 1)
(0.474702 0.880147 0)
(0 0 -1)
(0.50196 0.864891 -0)
(0 0 1)
(0.50196 0.864891 0)
(0 0 -1)
(0.528408 0.84899 -0)
(0 0 1)
(0.528408 0.84899 0)
(0 0 -1)
(0.55459 0.832124 -0)
(0 0 1)
(0.55459 0.832124 0)
(0 0 -1)
(0.580025 0.814599 -0)
(0 0 1)
(0.580025 0.814599 0)
(0 0 -1)
(0.605168 0.796098 -0)
(0 0 1)
(0.605168 0.796098 0)
(0 0 -1)
(0.629526 0.77698 -0)
(0 0 1)
(0.629526 0.77698 0)
(0 0 -1)
(0.653362 0.757046 -0)
(0 0 1)
(0.653362 0.757046 0)
(0 0 -1)
(0.67661 0.736342 -0)
(0 0 1)
(0.67661 0.736342 0)
(0 0 -1)
(0.699006 0.715115 -0)
(0 0 1)
(0.699006 0.715115 0)
(0 0 -1)
(0.720889 0.693051 -0)
(0 0 1)
(0.720889 0.693051 0)
(0 0 -1)
(0.74208 0.670311 -0)
(0 0 1)
(0.74208 0.670311 0)
(0 0 -1)
(0.762525 0.646959 -0)
(0 0 1)
(0.762525 0.646959 0)
(0 0 -1)
(0.782242 0.622975 -0)
(0 0 1)
(0.782242 0.622975 0)
(0 0 -1)
(0.801172 0.598434 -0)
(0 0 1)
(0.801172 0.598434 0)
(0 0 -1)
(0.819369 0.573266 -0)
(0 0 1)
(0.819369 0.573266 0)
(0 0 -1)
(0.83674 0.5476 -0)
(0 0 1)
(0.83674 0.5476 0)
(0 0 -1)
(0.853349 0.52134 -0)
(0 0 1)
(0.853349 0.52134 0)
(0 0 -1)
(0.869192 0.494475 -0)
(0 0 1)
(0.869192 0.494475 0)
(0 0 -1)
(0.88405 0.467392 -0)
(0 0 1)
(0.88405 0.467392 0)
(-0 0 -1)
(0.898136 0.439717 -0)
(0 0 1)
(0.898136 0.439717 0)
(-0 0 -1)
(0.911313 0.411715 -0)
(-0 0 1)
(0.911313 0.411715 0)
(-0 0 -1)
(0.923699 0.383118 -0)
(-0 0 1)
(0.923699 0.383118 0)
(-0 0 -1)
(0.935116 0.354341 -0)
(-0 0 1)
(0.935116 0.354341 0)
(-0 0 -1)
(0.945681 0.325096 -0)
(-0 0 1)
(0.945681 0.325096 0)
(-0 0 -1)
(0.955328 0.295548 -0)
(-0 0 1)
(0.955328 0.295548 0)
(-0 0 -1)
(0.964019 0.265833 -0)
(-0 0 1)
(0.964019 0.265833 0)
(-0 0 -1)
(0.971837 0.235653 -0)
(-0 0 1)
(0.971837 0.235653 0)
(-0 0 -1)
(0.97866 0.205487 -0)
(-0 0 1)
(0.97866 0.205487 0)
(-0 0 -1)
(0.984571 0.174987 -0)
(-0 0 1)
(0.984571 0.174987 0)
(-0 0 -1)
(0.989509 0.144468 -0)
(-0 0 1)
(0.989509 0.144468 0)
(-0 0 -1)
(0.993534 0.113531 -0)
(-0 0 1)
(0.993534 0.113531 0)
(-0 0 -1)
(0.996572 0.082727 -0)
(-0 0 1)
(0.996572 0.082727 0)
(-0 0 -1)
(0.99866 0.0517524 -0)
(-0 0 1)
(0.99866 0.0517524 0)
(-0 0 -1)
(0.999784 0.0207945 -0)
(-0 0 1)
(0.999784 0.0207945 0)
(-0 0 -1)
(0.999945 -0.0104748 0)
(-0 0 1)
(0.999945 -0.0104748 0)
(-0 0 -1)
(0.999148 -0.0412759 0)
(-0 0 1)
(0.999148 -0.0412759 0)
(-0 0 -1)
(0.997375 -0.0724111 0)
(-0 0 1)
(0.997375 -0.0724111 0)
(0 0 -1)
(0.994661 -0.103199 0)
(0 0 1)
(0.994661 -0.103199 0)
(0 0 -1)
(0.587798 -0.809008 0)
(-0.156487 -0.98768 -0)
(-0 0 1)
(0.587798 -0.809008 0)
(-0.156487 -0.98768 0)
(-0.990058 0.140659 0)
(0 0 -1)
(-0 0 -1)
(-0.990058 0.140659 0)
(-0.994089 0.108571 0)
(-0 0 -1)
(-0.994089 0.108571 0)
(-0 0 1)
(-0.997057 0.0766647 0)
(0 0 -1)
(-0.997057 0.0766647 0)
(-0 0 1)
(-0.999005 0.0445959 0)
(0 0 -1)
(-0.999005 0.0445959 0)
(0 0 1)
(-0.999924 0.0123428 0)
(0 0 -1)
(-0.999924 0.0123428 0)
(0 0 1)
(-0.999809 -0.0195618 0)
(0 0 -1)
(-0.999809 -0.0195618 0)
(0 -0 1)
(-0.998657 -0.0518137 0)
(0 0 -1)
(-0.998657 -0.0518137 0)
(0 -0 1)
(-0.996489 -0.0837191 0)
(0 0 -1)
(-0.996489 -0.0837191 0)
(0 -0 1)
(-0.993255 -0.115954 0)
(0 0 -1)
(-0.993255 -0.115954 0)
(0 -0 1)
(-0.989054 -0.147555 0)
(0 0 -1)
(-0.989054 -0.147555 0)
(0 -0 1)
(-0.983763 -0.179473 0)
(0 0 -1)
(-0.983763 -0.179473 0)
(0 -0 1)
(-0.977509 -0.210894 0)
(0 0 -1)
(-0.977509 -0.210894 0)
(0 -0 1)
(-0.970232 -0.242178 0)
(0 0 -1)
(-0.970232 -0.242178 0)
(0 -0 1)
(-0.961971 -0.273153 0)
(0 0 -1)
(-0.961971 -0.273153 0)
(0 -0 1)
(-0.95265 -0.30407 0)
(0 0 -1)
(-0.95265 -0.30407 0)
(0 -0 1)
(-0.942427 -0.334412 0)
(0 0 -1)
(-0.942427 -0.334412 0)
(0 -0 1)
(-0.931186 -0.364543 0)
(0 0 -1)
(-0.931186 -0.364543 0)
(0 -0 1)
(-0.919008 -0.394238 0)
(0 0 -1)
(-0.919008 -0.394238 0)
(0 -0 1)
(-0.905799 -0.423707 0)
(0 0 -1)
(-0.905799 -0.423707 0)
(0 -0 1)
(-0.891787 -0.452455 0)
(0 0 -1)
(-0.891787 -0.452455 0)
(0 -0 1)
(-0.876732 -0.48098 0)
(0 0 -1)
(-0.876732 -0.48098 0)
(0 -0 1)
(-0.860905 -0.508766 0)
(0 0 -1)
(-0.860905 -0.508766 0)
(0 -0 1)
(-0.844031 -0.536295 0)
(0 0 -1)
(-0.844031 -0.536295 0)
(0 -0 1)
(-0.826386 -0.563104 0)
(0 0 -1)
(-0.826386 -0.563104 0)
(0 -0 1)
(-0.807931 -0.589277 0)
(0 0 -1)
(-0.807931 -0.589277 0)
(0 -0 1)
(-0.788489 -0.615049 0)
(0 0 -1)
(-0.788489 -0.615049 0)
(0 -0 1)
(-0.768398 -0.639972 0)
(0 0 -1)
(-0.768398 -0.639972 0)
(0 -0 1)
(-0.747344 -0.664437 0)
(0 0 -1)
(-0.747344 -0.664437 0)
(0 -0 1)
(-0.725702 -0.688009 0)
(0 0 -1)
(-0.725702 -0.688009 0)
(0 -0 1)
(-0.703164 -0.711027 0)
(0 0 -1)
(-0.703164 -0.711027 0)
(0 -0 1)
(-0.679986 -0.733225 0)
(0 0 -1)
(-0.679986 -0.733225 0)
(0 -0 1)
(-0.656154 -0.754627 0)
(0 0 -1)
(-0.656154 -0.754627 0)
(0 -0 1)
(-0.631415 -0.775445 0)
(0 0 -1)
(-0.631415 -0.775445 0)
(0 -0 1)
(-0.60622 -0.795297 0)
(0 0 -1)
(-0.60622 -0.795297 0)
(0 -0 1)
(-0.580339 -0.814375 0)
(0 0 -1)
(-0.580339 -0.814375 0)
(0 -0 1)
(-0.553962 -0.832542 0)
(0 0 -1)
(-0.553962 -0.832542 0)
(0 -0 1)
(-0.526827 -0.849973 0)
(0 0 -1)
(-0.526827 -0.849973 0)
(0 -0 1)
(-0.499293 -0.866433 0)
(0 0 -1)
(-0.499293 -0.866433 0)
(0 -0 1)
(-0.47124 -0.882005 0)
(0 0 -1)
(-0.47124 -0.882005 0)
(0 -0 1)
(-0.442653 -0.896693 0)
(0 0 -1)
(-0.442653 -0.896693 0)
(0 -0 1)
(-0.413607 -0.910456 0)
(0 0 -1)
(-0.413607 -0.910456 0)
(0 -0 1)
(-0.383967 -0.923347 0)
(0 0 -1)
(-0.383967 -0.923347 0)
(0 -0 1)
(-0.354268 -0.935144 0)
(0 0 -1)
(-0.354268 -0.935144 0)
(0 -0 1)
(-0.324011 -0.946053 0)
(0 0 -1)
(-0.324011 -0.946053 0)
(0 -0 1)
(-0.29348 -0.955965 0)
(0 0 -1)
(-0.29348 -0.955965 0)
(0 -0 1)
(-0.26256 -0.964916 0)
(0 0 -1)
(-0.26256 -0.964916 0)
(0 -0 1)
(-0.231578 -0.972816 0)
(0 0 -1)
(-0.231578 -0.972816 0)
(0 -0 1)
(-0.2 -0.979796 0)
(0 0 -1)
(-0.2 -0.979796 0)
(0 -0 1)
(-0.168403 -0.985718 0)
(0 0 -1)
(-0.168403 -0.985718 0)
(0 0 1)
(-0.136658 -0.990618 0)
(0 0 -1)
(-0.136658 -0.990618 0)
(0 0 1)
(-0.105044 -0.994468 0)
(0 0 -1)
(-0.105044 -0.994468 0)
(0 0 1)
(-0.072651 -0.997357 0)
(0 0 -1)
(-0.072651 -0.997357 0)
(0 0 1)
(-0.0407349 -0.99917 0)
(0 0 -1)
(-0.0407349 -0.99917 0)
(0 0 1)
(-0.694714 -0.719286 -0)
(-0.999847 -0.017492 -0)
(-0.694714 -0.719286 0)
(0 0 -1)
(0 0 1)
(0 0 1)
)

// normal volume types

444
(
0
0
0
0
0
0
0
0
0
0
0
0
0
0
0
0
0
0
0
0
0
0
0
0
0
0
0
0
0
0
0
0
0
0
0
0
0
0
0
0
0
0
0
0
0
0
0
0
0
0
0
0
0
0
0
0
0
0
0
0
0
0
0
0
0
0
0
0
0
0
0
0
0
0
0
0
0
0
0
0
0
0
0
0
0
0
0
0
0
0
0
0
0
0
0
0
0
0
0
0
0
0
0
0
0
0
0
0
0
0
0
0
0
0
0
0
0
0
0
0
0
0
0
0
0
0
0
0
0
0
0
0
0
0
0
0
0
0
0
0
0
0
0
0
0
0
0
0
0
0
0
0
0
0
0
0
0
0
0
0
0
0
0
0
0
0
0
0
0
0
0
0
0
0
0
0
0
0
0
0
0
0
0
0
0
0
0
0
0
0
0
0
0
0
0
0
0
0
0
0
0
0
0
0
0
0
0
0
0
0
0
0
0
0
0
0
0
0
0
0
0
0
0
0
0
0
0
0
0
0
0
0
0
0
0
0
0
0
0
0
0
0
0
0
0
0
0
0
0
0
0
0
0
0
0
0
0
0
0
0
0
0
0
0
0
0
0
0
0
0
0
0
0
0
0
0
0
0
0
0
0
0
0
0
0
0
0
0
0
0
0
0
0
0
0
0
0
0
0
0
0
0
0
0
0
0
0
0
0
0
0
0
0
0
0
0
0
0
0
0
0
0
0
0
0
0
0
0
0
0
0
0
0
0
0
0
0
0
0
0
0
0
0
0
0
0
0
0
0
0
0
0
0
0
0
0
0
0
0
0
0
0
0
0
0
0
0
0
0
0
0
0
0
0
0
0
0
0
0
0
0
0
0
0
0
0
0
0
0
0
0
0
0
0
0
0
0
0
0
0
0
0
0
0
0
0
0
0
0
0
0
0
0
0
0
0
0
0
0
0
0
0
0
0
0
0
0
0
0
0
0
0
0
0
0
0
0
0
0
0
0
0
0
0
)

// normalDirections

230
(
2(1 -1)
2(1 -1)
2(1 -1)
2(1 -1)
2(1 -1)
2(1 -1)
2(1 -1)
2(1 -1)
2(1 -1)
2(1 -1)
2(1 -1)
2(1 -1)
2(1 -1)
2(1 -1)
2(1 -1)
2(1 -1)
2(1 -1)
2(1 -1)
2(1 -1)
2(1 -1)
2(1 -1)
2(1 -1)
2(1 -1)
2(1 -1)
2(1 -1)
2(1 -1)
2(1 -1)
2(1 -1)
2(1 -1)
2(1 -1)
2(1 -1)
2(1 -1)
2(1 -1)
2(1 -1)
2(1 -1)
2(1 -1)
2(1 -1)
2(1 -1)
2(1 -1)
2(1 -1)
2(1 -1)
2(1 -1)
2(1 -1)
2(1 -1)
2(1 -1)
2(1 -1)
2(1 -1)
2(1 -1)
2(1 -1)
2(1 -1)
2(1 -1)
2(1 -1)
2(1 -1)
2(1 -1)
2(1 -1)
2(1 -1)
2(1 -1)
2(1 -1)
2(1 -1)
2(1 -1)
2(1 -1)
2(1 -1)
2(1 -1)
2(1 -1)
2(1 -1)
2(1 -1)
2(1 -1)
2(1 -1)
2(1 -1)
2(1 -1)
2(1 -1)
2(1 -1)
2(1 -1)
2(1 -1)
2(1 -1)
2(1 -1)
2(1 -1)
2(1 -1)
2(1 -1)
2(1 -1)
2(1 -1)
2(1 -1)
2(1 -1)
2(1 -1)
2(1 -1)
2(1 -1)
2(1 -1)
2(1 -1)
2(1 -1)
2(1 -1)
2(1 -1)
2(1 -1)
2(1 -1)
2(1 -1)
2(1 -1)
2(1 -1)
2(1 -1)
2(1 -1)
2(1 -1)
2(1 -1)
2(1 -1)
2(1 -1)
2(1 -1)
2(1 -1)
2(1 -1)
2(1 -1)
2(1 -1)
2(1 -1)
2(1 -1)
2(1 -1)
2(1 -1)
2(1 -1)
2(1 -1)
2(1 -1)
2(1 -1)
2(1 -1)
2(1 -1)
2(1 -1)
2(1 -1)
2(1 -1)
2(1 -1)
2(1 -1)
2(1 -1)
2(1 -1)
2(1 -1)
2(1 -1)
2(1 -1)
2(1 -1)
2(1 -1)
2(1 -1)
2(1 -1)
2(1 -1)
2(1 -1)
2(1 -1)
2(1 -1)
2(1 -1)
2(1 -1)
2(1 -1)
2(1 -1)
2(1 -1)
2(1 -1)
2(1 -1)
2(1 -1)
2(1 -1)
2(1 -1)
2(1 -1)
2(1 -1)
2(1 -1)
2(1 -1)
2(1 -1)
2(1 -1)
2(1 -1)
2(1 -1)
2(1 -1)
2(1 -1)
2(1 -1)
2(1 -1)
2(1 -1)
2(1 -1)
2(1 -1)
2(1 -1)
2(1 -1)
2(1 -1)
2(1 -1)
2(1 -1)
2(1 -1)
2(1 -1)
2(1 -1)
2(1 -1)
2(1 -1)
2(1 -1)
2(1 -1)
2(1 -1)
2(1 -1)
2(1 -1)
2(1 -1)
2(1 -1)
2(1 -1)
2(1 -1)
2(1 -1)
2(1 -1)
2(1 -1)
2(1 -1)
2(1 -1)
2(1 -1)
2(1 -1)
2(1 -1)
2(1 -1)
2(1 -1)
2(1 -1)
2(1 -1)
2(1 -1)
2(1 -1)
2(1 -1)
2(1 -1)
2(1 -1)
2(1 -1)
2(1 -1)
2(1 -1)
2(1 -1)
2(1 -1)
2(1 -1)
2(1 -1)
2(1 -1)
2(1 -1)
2(1 -1)
2(1 -1)
2(1 -1)
2(1 -1)
2(1 -1)
2(1 -1)
2(1 -1)
2(1 -1)
2(1 -1)
2(1 -1)
2(1 -1)
2(1 -1)
2(1 -1)
2(1 -1)
2(1 -1)
2(1 -1)
2(1 -1)
2(1 -1)
2(1 -1)
2(1 -1)
2(1 -1)
2(1 -1)
2(1 -1)
2(1 -1)
2(1 -1)
)

// edgeNormals

230
(
2(0 1)
2(0 2)
2(3 4)
2(5 6)
2(7 8)
2(9 10)
2(11 12)
2(13 14)
2(15 16)
2(17 18)
2(19 20)
2(21 22)
2(23 24)
2(25 26)
2(27 28)
2(29 30)
2(31 32)
2(33 34)
2(35 36)
2(37 38)
2(39 40)
2(41 42)
2(43 44)
2(45 46)
2(47 48)
2(49 50)
2(51 52)
2(53 54)
2(55 56)
2(57 58)
2(59 60)
2(61 62)
2(63 64)
2(65 66)
2(67 68)
2(69 70)
2(71 72)
2(73 74)
2(75 76)
2(77 78)
2(79 80)
2(81 82)
2(83 84)
2(85 86)
2(87 88)
2(89 90)
2(91 92)
2(93 94)
2(95 96)
2(97 98)
2(99 100)
2(101 102)
2(103 104)
2(105 106)
2(107 108)
2(109 110)
2(111 112)
2(113 114)
2(115 116)
2(117 118)
2(119 120)
2(121 122)
2(123 124)
2(125 126)
2(127 128)
2(129 130)
2(131 132)
2(133 134)
2(135 136)
2(137 138)
2(139 140)
2(141 142)
2(143 144)
2(145 146)
2(147 148)
2(149 150)
2(151 152)
2(153 154)
2(155 156)
2(157 158)
2(159 160)
2(161 162)
2(163 164)
2(165 166)
2(167 168)
2(169 170)
2(171 172)
2(173 174)
2(175 176)
2(177 178)
2(179 180)
2(181 182)
2(183 184)
2(185 186)
2(187 188)
2(189 190)
2(191 192)
2(193 194)
2(195 196)
2(197 198)
2(199 200)
2(201 202)
2(203 204)
2(205 206)
2(207 208)
2(209 210)
2(211 212)
2(213 214)
2(215 216)
2(217 218)
2(219 220)
2(219 221)
2(222 223)
2(222 224)
2(225 226)
2(225 227)
2(226 228)
2(229 223)
2(230 231)
2(232 233)
2(234 235)
2(236 237)
2(238 239)
2(240 241)
2(242 243)
2(244 245)
2(246 247)
2(248 249)
2(250 251)
2(252 253)
2(254 255)
2(256 257)
2(258 259)
2(260 261)
2(262 263)
2(264 265)
2(266 267)
2(268 269)
2(270 271)
2(272 273)
2(274 275)
2(276 277)
2(278 279)
2(280 281)
2(282 283)
2(284 285)
2(286 287)
2(288 289)
2(290 291)
2(292 293)
2(294 295)
2(296 297)
2(298 299)
2(300 301)
2(302 303)
2(304 305)
2(306 307)
2(308 309)
2(310 311)
2(312 313)
2(314 315)
2(316 317)
2(318 319)
2(320 321)
2(322 323)
2(324 325)
2(326 327)
2(328 329)
2(330 331)
2(332 333)
2(334 335)
2(336 337)
2(338 339)
2(340 341)
2(342 343)
2(344 345)
2(346 347)
2(348 349)
2(350 351)
2(352 353)
2(354 355)
2(356 357)
2(358 359)
2(360 361)
2(362 363)
2(364 365)
2(366 367)
2(368 369)
2(370 371)
2(372 373)
2(374 375)
2(376 377)
2(378 379)
2(380 381)
2(382 383)
2(384 385)
2(386 387)
2(388 389)
2(390 391)
2(392 393)
2(394 395)
2(396 397)
2(398 399)
2(400 401)
2(402 403)
2(404 405)
2(406 407)
2(408 409)
2(410 411)
2(412 413)
2(414 415)
2(416 417)
2(418 419)
2(420 421)
2(422 423)
2(424 425)
2(426 427)
2(428 429)
2(430 431)
2(432 433)
2(434 435)
2(436 437)
2(436 438)
2(439 2)
2(439 440)
2(1 441)
2(441 440)
2(227 224)
2(442 438)
2(443 221)
)

// featurePointNormals

12
(
3(0 1 4)
3(0 1 2)
3(217 218 221)
3(219 220 221)
3(222 223 224)
3(222 223 226)
3(222 224 227)
3(225 226 227)
3(434 435 438)
3(436 437 438)
3(439 2 440)
3(439 440 441)
)

// featurePointEdges

12
(
3(2 225 0)
3(0 223 1)
3(111 229 109)
3(110 227 111)
3(112 229 113)
3(114 117 112)
3(115 227 113)
3(114 116 115)
3(222 226 220)
3(221 228 222)
3(223 228 224)
3(225 226 224)
)

// regionEdges
0()


// ************************************************************************* //
