/*--------------------------------*- C++ -*----------------------------------*\
| =========                 |                                                 |
| \\      /  F ield         | OpenFOAM: The Open Source CFD Toolbox           |
|  \\    /   O peration     | Version:  7                                     |
|   \\  /    A nd           | Web:      www.OpenFOAM.com                      |
|    \\/     M anipulation  |                                                 |
\*---------------------------------------------------------------------------*/
FoamFile
{
    version     2.0;
    format      ascii;
    class       volVectorField;
    object      U;
}
// * * * * * * * * * * * * * * * * * * * * * * * * * * * * * * * * * * * * * //

dimensions      [0 1 -1 0 0 0 0];

internalField   uniform (0 0 0);

boundaryField
{
    #includeEtc "caseDicts/setConstraintTypes"

    inlet
    {
        /*type            fixedValue;
        value           uniform (102 0 0);*/
    	type                flowRateInletVelocity;
    	volumetricFlowRate  4.386;
    	value               $internalField;
    }

    outlet
    {
        //type            zeroGradient;
    	type                pressureInletOutletVelocity;
    	value               $internalField;
    }

    walls
    {
        type            noSlip;
    }
}

// ************************************************************************* //
